[Format]      =  1
[Precision]   =  1e-008
[Frequency]   =  300
[MinAngle]    =  30
[Depth]       =  30
[LengthUnits] =  inches
[ProblemType] =  planar
[Coordinates] =  cartesian
[Comment]     =  "Add comments here."
[PointProps]   = 0
[BdryProps]   = 0
[BlockProps]  = 11
  <BeginBlock>
    <BlockName> = "Grafit"
    <ox> = 3000000
    <oy> = 3000000
    <ex> = 1
    <ey> = 1
    <ltx> = 0
    <lty> = 0
  <EndBlock>
  <BeginBlock>
    <BlockName> = "TapWater@25°C"
    <ox> = 0.050000000000000003
    <oy> = 0.050000000000000003
    <ex> = 80
    <ey> = 80
    <ltx> = 0
    <lty> = 0
  <EndBlock>
  <BeginBlock>
    <BlockName> = "Plexiglas GS"
    <ox> = 0
    <oy> = 0
    <ex> = 6
    <ey> = 6
    <ltx> = 6
    <lty> = 6
  <EndBlock>
  <BeginBlock>
    <BlockName> = "Copper"
    <ox> = 58000000
    <oy> = 58000000
    <ex> = 1
    <ey> = 1
    <ltx> = 0
    <lty> = 0
  <EndBlock>
  <BeginBlock>
    <BlockName> = "e1"
    <ox> = 2.6498996896116669
    <oy> = 2.6498996896116669
    <ex> = 1
    <ey> = 1
    <ltx> = 0
    <lty> = 0
  <EndBlock>
  <BeginBlock>
    <BlockName> = "e2"
    <ox> = 0.12953316809300527
    <oy> = 0.12953316809300527
    <ex> = 1
    <ey> = 1
    <ltx> = 0
    <lty> = 0
  <EndBlock>
  <BeginBlock>
    <BlockName> = "e3"
    <ox> = 14.398967120915913
    <oy> = 14.398967120915913
    <ex> = 1
    <ey> = 1
    <ltx> = 0
    <lty> = 0
  <EndBlock>
  <BeginBlock>
    <BlockName> = "e4"
    <ox> = 0.042882574356338271
    <oy> = 0.042882574356338271
    <ex> = 1
    <ey> = 1
    <ltx> = 0
    <lty> = 0
  <EndBlock>
  <BeginBlock>
    <BlockName> = "e5"
    <ox> = 37.197476986533054
    <oy> = 37.197476986533054
    <ex> = 1
    <ey> = 1
    <ltx> = 0
    <lty> = 0
  <EndBlock>
  <BeginBlock>
    <BlockName> = "e6"
    <ox> = 0.015664246064106369
    <oy> = 0.015664246064106369
    <ex> = 1
    <ey> = 1
    <ltx> = 0
    <lty> = 0
  <EndBlock>
  <BeginBlock>
    <BlockName> = "e7"
    <ox> = 142.03015659052124
    <oy> = 142.03015659052124
    <ex> = 1
    <ey> = 1
    <ltx> = 0
    <lty> = 0
  <EndBlock>
[ConductorProps]  = 2
  <BeginConductor>
    <ConductorName> = "Tx"
    <vcr> = 3
    <vci> = 0
    <qcr> = 0
    <qci> = 0
    <ConductorType> = 1
  <EndConductor>
  <BeginConductor>
    <ConductorName> = "Gnd"
    <vcr> = 0
    <vci> = 0
    <qcr> = 0
    <qci> = 0
    <ConductorType> = 1
  <EndConductor>
[NumPoints] = 332
-1.8369701987210297e-016	-3	0	0	0
0.18837099999999982	-2.9940799999999999	0	0	0
0.37599899999999986	-2.97634	0	0	0
0.56214299999999973	-2.94686	0	0	0
0.74606899999999976	-2.9057499999999998	0	0	0
0.92705099999999974	-2.85317	0	0	0
1.1043699999999999	-2.7893300000000001	0	0	0
1.2773399999999997	-2.71448	0	0	0
1.4452599999999998	-2.6289199999999999	0	0	0
1.6074799999999998	-2.5329799999999998	0	0	0
1.7633599999999998	-2.4270499999999999	0	0	0
1.9122699999999997	-2.3115399999999999	0	0	0
2.0536400000000001	-2.1869100000000001	0	0	0
2.1869100000000001	-2.0536400000000001	0	0	0
2.3115399999999999	-1.9122700000000001	0	0	0
2.4270499999999999	-1.7633600000000003	0	0	0
2.5329799999999998	-1.6074800000000002	0	0	0
2.6289199999999999	-1.4452600000000002	0	0	0
2.71448	-1.2773400000000001	0	0	0
2.7893300000000001	-1.1043700000000003	0	0	0
2.85317	-0.92705100000000018	0	0	0
2.9057499999999998	-0.7460690000000002	0	0	0
2.94686	-0.56214300000000017	0	0	0
2.97634	-0.37599900000000019	0	0	0
2.9940799999999999	-0.1883710000000002	0	0	0
3	-1.8369701987210297e-016	0	0	0
2.9940799999999999	0.18837099999999982	0	0	0
2.97634	0.37599899999999986	0	0	0
2.94686	0.56214299999999973	0	0	0
2.9057499999999998	0.74606899999999976	0	0	0
2.85317	0.92705099999999974	0	0	0
2.7893300000000001	1.1043699999999999	0	0	0
2.71448	1.2773399999999997	0	0	0
2.6289199999999999	1.4452599999999998	0	0	0
2.5329799999999998	1.6074799999999998	0	0	0
2.4270499999999999	1.7633599999999998	0	0	0
2.3115399999999999	1.9122699999999997	0	0	0
2.1869100000000001	2.0536400000000001	0	0	0
2.0536400000000001	2.1869100000000001	0	0	0
1.9122700000000001	2.3115399999999999	0	0	0
1.7633600000000003	2.4270499999999999	0	0	0
1.6074800000000002	2.5329799999999998	0	0	0
1.4452600000000002	2.6289199999999999	0	0	0
1.2773400000000001	2.71448	0	0	0
1.1043700000000003	2.7893300000000001	0	0	0
0.92705100000000018	2.85317	0	0	0
0.7460690000000002	2.9057499999999998	0	0	0
0.56214300000000017	2.94686	0	0	0
0.37599900000000019	2.97634	0	0	0
0.1883710000000002	2.9940799999999999	0	0	0
1.8369701987210297e-016	3	0	0	0
-0.18837099999999982	2.9940799999999999	0	0	0
-0.37599899999999986	2.97634	0	0	0
-0.56214299999999973	2.94686	0	0	0
-0.74606899999999976	2.9057499999999998	0	0	0
-0.92705099999999974	2.85317	0	0	0
-1.1043699999999999	2.7893300000000001	0	0	0
-1.2773399999999997	2.71448	0	0	0
-1.4452599999999998	2.6289199999999999	0	0	0
-1.6074799999999998	2.5329799999999998	0	0	0
-1.7633599999999998	2.4270499999999999	0	0	0
-1.9122699999999997	2.3115399999999999	0	0	0
-2.0536400000000001	2.1869100000000001	0	0	0
-2.1869100000000001	2.0536400000000001	0	0	0
-2.3115399999999999	1.9122700000000001	0	0	0
-2.4270499999999999	1.7633600000000003	0	0	0
-2.5329799999999998	1.6074800000000002	0	0	0
-2.6289199999999999	1.4452600000000002	0	0	0
-2.71448	1.2773400000000001	0	0	0
-2.7893300000000001	1.1043700000000003	0	0	0
-2.85317	0.92705100000000018	0	0	0
-2.9057499999999998	0.7460690000000002	0	0	0
-2.94686	0.56214300000000017	0	0	0
-2.97634	0.37599900000000019	0	0	0
-2.9940799999999999	0.1883710000000002	0	0	0
-3	1.8369701987210297e-016	0	0	0
-2.9940799999999999	-0.18837099999999982	0	0	0
-2.97634	-0.37599899999999986	0	0	0
-2.94686	-0.56214299999999973	0	0	0
-2.9057499999999998	-0.74606899999999976	0	0	0
-2.85317	-0.92705099999999974	0	0	0
-2.7893300000000001	-1.1043699999999999	0	0	0
-2.71448	-1.2773399999999997	0	0	0
-2.6289199999999999	-1.4452599999999998	0	0	0
-2.5329799999999998	-1.6074799999999998	0	0	0
-2.4270499999999999	-1.7633599999999998	0	0	0
-2.3115399999999999	-1.9122699999999997	0	0	0
-2.1869100000000001	-2.0536400000000001	0	0	0
-2.0536400000000001	-2.1869100000000001	0	0	0
-1.9122700000000001	-2.3115399999999999	0	0	0
-1.7633600000000003	-2.4270499999999999	0	0	0
-1.6074800000000002	-2.5329799999999998	0	0	0
-1.4452600000000002	-2.6289199999999999	0	0	0
-1.2773400000000001	-2.71448	0	0	0
-1.1043700000000003	-2.7893300000000001	0	0	0
-0.92705100000000018	-2.85317	0	0	0
-0.7460690000000002	-2.9057499999999998	0	0	0
-0.56214300000000017	-2.94686	0	0	0
-0.37599900000000019	-2.97634	0	0	0
-0.1883710000000002	-2.9940799999999999	0	0	0
11.949999999999999	-1.5000000000000007	0	0	0
11.949999999999999	1.4999999999999993	0	0	0
9.7166700000000006	1.4999999999999993	0	0	0
9.7166700000000006	-1.5000000000000007	0	0	0
7.6166700000000001	-1.5000000000000004	0	0	0
7.6166700000000001	1.4999999999999996	0	0	0
3.0499999999999998	1.4999999999999998	0	0	0
3.0499999999999998	-1.5000000000000002	0	0	0
-3.0499999999999998	-1.4999999999999998	0	0	0
-3.0499999999999998	1.5000000000000002	0	0	0
-7.6166700000000001	1.5000000000000004	0	0	0
-7.6166700000000001	-1.4999999999999996	0	0	0
-9.7166700000000006	-1.4999999999999993	0	0	0
-9.7166700000000006	1.5000000000000007	0	0	0
-12	1.5000000000000007	0	0	0
-12	-1.4999999999999993	0	0	0
8.6666699999999999	-1.0000000000000004	0	0	2
8.7294599999999996	-0.99802600000000052	0	0	2
8.7919999999999998	-0.99211400000000061	0	0	2
8.8540500000000009	-0.98228600000000055	0	0	2
8.9153599999999997	-0.96858300000000053	0	0	2
8.9756800000000005	-0.95105600000000057	0	0	2
9.0347899999999992	-0.9297760000000006	0	0	2
9.0924499999999995	-0.90482600000000057	0	0	2
9.1484199999999998	-0.8763070000000005	0	0	2
9.2024899999999992	-0.8443270000000006	0	0	2
9.2544500000000003	-0.80901600000000051	0	0	2
9.3040900000000004	-0.77051300000000056	0	0	2
9.35121	-0.72896900000000053	0	0	2
9.3956300000000006	-0.68454600000000054	0	0	2
9.4371799999999997	-0.63742400000000055	0	0	2
9.4756800000000005	-0.58778500000000056	0	0	2
9.5109899999999996	-0.53582700000000061	0	0	2
9.5429700000000004	-0.4817530000000006	0	0	2
9.5714900000000007	-0.4257780000000006	0	0	2
9.5964399999999994	-0.36812400000000062	0	0	2
9.6177200000000003	-0.30901600000000062	0	0	2
9.6352499999999992	-0.24869000000000058	0	0	2
9.6489499999999992	-0.18738100000000057	0	0	2
9.6587800000000001	-0.12533300000000058	0	0	2
9.6646900000000002	-0.062789900000000592	0	0	2
9.6666699999999999	-5.919128236956872e-016	0	0	2
9.6646900000000002	0.062789899999999399	0	0	2
9.6587800000000001	0.12533299999999942	0	0	2
9.6489499999999992	0.18738099999999941	0	0	2
9.6352499999999992	0.24868999999999941	0	0	2
9.6177200000000003	0.3090159999999994	0	0	2
9.5964399999999994	0.3681239999999994	0	0	2
9.5714900000000007	0.42577799999999938	0	0	2
9.5429700000000004	0.48175299999999938	0	0	2
9.5109899999999996	0.5358269999999995	0	0	2
9.4756800000000005	0.58778499999999945	0	0	2
9.4371799999999997	0.63742399999999944	0	0	2
9.3956300000000006	0.68454599999999943	0	0	2
9.35121	0.72896899999999942	0	0	2
9.3040900000000004	0.77051299999999945	0	0	2
9.2544500000000003	0.8090159999999994	0	0	2
9.2024899999999992	0.84432699999999949	0	0	2
9.1484199999999998	0.87630699999999939	0	0	2
9.0924499999999995	0.90482599999999946	0	0	2
9.0347899999999992	0.92977599999999949	0	0	2
8.9756800000000005	0.95105599999999946	0	0	2
8.9153599999999997	0.96858299999999942	0	0	2
8.8540500000000009	0.98228599999999944	0	0	2
8.7919999999999998	0.9921139999999995	0	0	2
8.7294599999999996	0.99802599999999941	0	0	2
8.6666699999999999	0.99999999999999944	0	0	2
8.6038800000000002	0.99802599999999941	0	0	2
8.5413300000000003	0.9921139999999995	0	0	2
8.4792900000000007	0.98228599999999944	0	0	2
8.41798	0.96858299999999942	0	0	2
8.3576499999999996	0.95105599999999946	0	0	2
8.2985399999999991	0.92977599999999949	0	0	2
8.2408900000000003	0.90482599999999946	0	0	2
8.1849100000000004	0.87630699999999939	0	0	2
8.1308399999999992	0.84432699999999961	0	0	2
8.0788799999999998	0.80901599999999951	0	0	2
8.0292399999999997	0.77051299999999956	0	0	2
7.9821200000000001	0.72896899999999953	0	0	2
7.9377000000000004	0.68454599999999954	0	0	2
7.8961499999999996	0.63742399999999955	0	0	2
7.8576499999999996	0.58778499999999956	0	0	2
7.8223399999999996	0.53582699999999961	0	0	2
7.7903599999999997	0.48175299999999949	0	0	2
7.7618400000000003	0.42577799999999949	0	0	2
7.7368899999999998	0.36812399999999951	0	0	2
7.7156099999999999	0.30901599999999951	0	0	2
7.69808	0.24868999999999952	0	0	2
7.68438	0.18738099999999952	0	0	2
7.67455	0.12533299999999953	0	0	2
7.6686399999999999	0.062789899999999524	0	0	2
7.6666699999999999	-4.6944814378095195e-016	0	0	2
7.6686399999999999	-0.062789900000000468	0	0	2
7.67455	-0.12533300000000047	0	0	2
7.68438	-0.18738100000000046	0	0	2
7.69808	-0.24869000000000047	0	0	2
7.7156099999999999	-0.30901600000000051	0	0	2
7.7368899999999998	-0.36812400000000051	0	0	2
7.7618400000000003	-0.42577800000000049	0	0	2
7.7903599999999997	-0.48175300000000049	0	0	2
7.8223399999999996	-0.5358270000000005	0	0	2
7.8576499999999996	-0.58778500000000045	0	0	2
7.8961499999999996	-0.63742400000000043	0	0	2
7.9377000000000004	-0.68454600000000043	0	0	2
7.9821200000000001	-0.72896900000000042	0	0	2
8.0292399999999997	-0.77051300000000045	0	0	2
8.0788799999999998	-0.8090160000000004	0	0	2
8.1308399999999992	-0.84432700000000049	0	0	2
8.1849100000000004	-0.8763070000000005	0	0	2
8.2408900000000003	-0.90482600000000057	0	0	2
8.2985399999999991	-0.9297760000000006	0	0	2
8.3576499999999996	-0.95105600000000057	0	0	2
8.41798	-0.96858300000000053	0	0	2
8.4792900000000007	-0.98228600000000055	0	0	2
8.5413300000000003	-0.99211400000000061	0	0	2
8.6038800000000002	-0.99802600000000052	0	0	2
-8.6666699999999999	-0.99999999999999944	0	0	1
-8.6038800000000002	-0.99802599999999941	0	0	1
-8.5413300000000003	-0.9921139999999995	0	0	1
-8.4792900000000007	-0.98228599999999944	0	0	1
-8.41798	-0.96858299999999942	0	0	1
-8.3576499999999996	-0.95105599999999946	0	0	1
-8.2985399999999991	-0.92977599999999949	0	0	1
-8.2408900000000003	-0.90482599999999946	0	0	1
-8.1849100000000004	-0.87630699999999939	0	0	1
-8.1308399999999992	-0.84432699999999961	0	0	1
-8.0788799999999998	-0.80901599999999951	0	0	1
-8.0292399999999997	-0.77051299999999956	0	0	1
-7.9821200000000001	-0.72896899999999953	0	0	1
-7.9377000000000004	-0.68454599999999954	0	0	1
-7.8961499999999996	-0.63742399999999955	0	0	1
-7.8576499999999996	-0.58778499999999956	0	0	1
-7.8223399999999996	-0.53582699999999961	0	0	1
-7.7903599999999997	-0.48175299999999949	0	0	1
-7.7618400000000003	-0.42577799999999949	0	0	1
-7.7368899999999998	-0.36812399999999951	0	0	1
-7.7156099999999999	-0.30901599999999951	0	0	1
-7.69808	-0.24868999999999952	0	0	1
-7.68438	-0.18738099999999952	0	0	1
-7.67455	-0.12533299999999953	0	0	1
-7.6686399999999999	-0.062789899999999524	0	0	1
-7.6666699999999999	4.6944814378095195e-016	0	0	1
-7.6686399999999999	0.062789900000000468	0	0	1
-7.67455	0.12533300000000047	0	0	1
-7.68438	0.18738100000000046	0	0	1
-7.69808	0.24869000000000047	0	0	1
-7.7156099999999999	0.30901600000000051	0	0	1
-7.7368899999999998	0.36812400000000051	0	0	1
-7.7618400000000003	0.42577800000000049	0	0	1
-7.7903599999999997	0.48175300000000049	0	0	1
-7.8223399999999996	0.5358270000000005	0	0	1
-7.8576499999999996	0.58778500000000045	0	0	1
-7.8961499999999996	0.63742400000000043	0	0	1
-7.9377000000000004	0.68454600000000043	0	0	1
-7.9821200000000001	0.72896900000000042	0	0	1
-8.0292399999999997	0.77051300000000045	0	0	1
-8.0788799999999998	0.8090160000000004	0	0	1
-8.1308399999999992	0.84432700000000049	0	0	1
-8.1849100000000004	0.8763070000000005	0	0	1
-8.2408900000000003	0.90482600000000057	0	0	1
-8.2985399999999991	0.9297760000000006	0	0	1
-8.3576499999999996	0.95105600000000057	0	0	1
-8.41798	0.96858300000000053	0	0	1
-8.4792900000000007	0.98228600000000055	0	0	1
-8.5413300000000003	0.99211400000000061	0	0	1
-8.6038800000000002	0.99802600000000052	0	0	1
-8.6666699999999999	1.0000000000000004	0	0	1
-8.7294599999999996	0.99802600000000052	0	0	1
-8.7919999999999998	0.99211400000000061	0	0	1
-8.8540500000000009	0.98228600000000055	0	0	1
-8.9153599999999997	0.96858300000000053	0	0	1
-8.9756800000000005	0.95105600000000057	0	0	1
-9.0347899999999992	0.9297760000000006	0	0	1
-9.0924499999999995	0.90482600000000057	0	0	1
-9.1484199999999998	0.8763070000000005	0	0	1
-9.2024899999999992	0.8443270000000006	0	0	1
-9.2544500000000003	0.80901600000000051	0	0	1
-9.3040900000000004	0.77051300000000056	0	0	1
-9.35121	0.72896900000000053	0	0	1
-9.3956300000000006	0.68454600000000054	0	0	1
-9.4371799999999997	0.63742400000000055	0	0	1
-9.4756800000000005	0.58778500000000056	0	0	1
-9.5109899999999996	0.53582700000000061	0	0	1
-9.5429700000000004	0.4817530000000006	0	0	1
-9.5714900000000007	0.4257780000000006	0	0	1
-9.5964399999999994	0.36812400000000062	0	0	1
-9.6177200000000003	0.30901600000000062	0	0	1
-9.6352499999999992	0.24869000000000058	0	0	1
-9.6489499999999992	0.18738100000000057	0	0	1
-9.6587800000000001	0.12533300000000058	0	0	1
-9.6646900000000002	0.062789900000000592	0	0	1
-9.6666699999999999	5.919128236956872e-016	0	0	1
-9.6646900000000002	-0.062789899999999399	0	0	1
-9.6587800000000001	-0.12533299999999942	0	0	1
-9.6489499999999992	-0.18738099999999941	0	0	1
-9.6352499999999992	-0.24868999999999941	0	0	1
-9.6177200000000003	-0.3090159999999994	0	0	1
-9.5964399999999994	-0.3681239999999994	0	0	1
-9.5714900000000007	-0.42577799999999938	0	0	1
-9.5429700000000004	-0.48175299999999938	0	0	1
-9.5109899999999996	-0.5358269999999995	0	0	1
-9.4756800000000005	-0.58778499999999945	0	0	1
-9.4371799999999997	-0.63742399999999944	0	0	1
-9.3956300000000006	-0.68454599999999943	0	0	1
-9.35121	-0.72896899999999942	0	0	1
-9.3040900000000004	-0.77051299999999945	0	0	1
-9.2544500000000003	-0.8090159999999994	0	0	1
-9.2024899999999992	-0.84432699999999949	0	0	1
-9.1484199999999998	-0.87630699999999939	0	0	1
-9.0924499999999995	-0.90482599999999946	0	0	1
-9.0347899999999992	-0.92977599999999949	0	0	1
-8.9756800000000005	-0.95105599999999946	0	0	1
-8.9153599999999997	-0.96858299999999942	0	0	1
-8.8540500000000009	-0.98228599999999944	0	0	1
-8.7919999999999998	-0.9921139999999995	0	0	1
-8.7294599999999996	-0.99802599999999941	0	0	1
-0.025000000000000001	19.835100000000001	0	0	0
-0.025000000000000001	-17.975100000000001	0	0	0
-0.025000000000000001	-18.245172857142858	0	0	0
-0.025000000000000001	20.105172857142858	0	0	0
-0.025000000000000001	-18.515245714285715	0	0	0
-0.025000000000000001	20.375245714285715	0	0	0
-0.025000000000000001	-18.785318571428576	0	0	0
-0.025000000000000001	20.645318571428575	0	0	0
-0.025000000000000001	-19.055391428571429	0	0	0
-0.025000000000000001	20.915391428571429	0	0	0
-0.025000000000000001	-19.325464285714286	0	0	0
-0.025000000000000001	21.185464285714286	0	0	0
-0.025000000000000001	-19.595537142857143	0	0	0
-0.025000000000000001	21.455537142857143	0	0	0
-0.025000000000000001	-19.865610000000004	0	0	0
-0.025000000000000001	21.725610000000003	0	0	0
[NumSegments] = 316
0	1	-1	0	0	0	0
1	2	-1	0	0	0	0
2	3	-1	0	0	0	0
3	4	-1	0	0	0	0
4	5	-1	0	0	0	0
5	6	-1	0	0	0	0
6	7	-1	0	0	0	0
7	8	-1	0	0	0	0
8	9	-1	0	0	0	0
9	10	-1	0	0	0	0
10	11	-1	0	0	0	0
11	12	-1	0	0	0	0
12	13	-1	0	0	0	0
13	14	-1	0	0	0	0
14	15	-1	0	0	0	0
15	16	-1	0	0	0	0
16	17	-1	0	0	0	0
17	18	-1	0	0	0	0
18	19	-1	0	0	0	0
19	20	-1	0	0	0	0
20	21	-1	0	0	0	0
21	22	-1	0	0	0	0
22	23	-1	0	0	0	0
23	24	-1	0	0	0	0
24	25	-1	0	0	0	0
25	26	-1	0	0	0	0
26	27	-1	0	0	0	0
27	28	-1	0	0	0	0
28	29	-1	0	0	0	0
29	30	-1	0	0	0	0
30	31	-1	0	0	0	0
31	32	-1	0	0	0	0
32	33	-1	0	0	0	0
33	34	-1	0	0	0	0
34	35	-1	0	0	0	0
35	36	-1	0	0	0	0
36	37	-1	0	0	0	0
37	38	-1	0	0	0	0
38	39	-1	0	0	0	0
39	40	-1	0	0	0	0
40	41	-1	0	0	0	0
41	42	-1	0	0	0	0
42	43	-1	0	0	0	0
43	44	-1	0	0	0	0
44	45	-1	0	0	0	0
45	46	-1	0	0	0	0
46	47	-1	0	0	0	0
47	48	-1	0	0	0	0
48	49	-1	0	0	0	0
49	50	-1	0	0	0	0
50	51	-1	0	0	0	0
51	52	-1	0	0	0	0
52	53	-1	0	0	0	0
53	54	-1	0	0	0	0
54	55	-1	0	0	0	0
55	56	-1	0	0	0	0
56	57	-1	0	0	0	0
57	58	-1	0	0	0	0
58	59	-1	0	0	0	0
59	60	-1	0	0	0	0
60	61	-1	0	0	0	0
61	62	-1	0	0	0	0
62	63	-1	0	0	0	0
63	64	-1	0	0	0	0
64	65	-1	0	0	0	0
65	66	-1	0	0	0	0
66	67	-1	0	0	0	0
67	68	-1	0	0	0	0
68	69	-1	0	0	0	0
69	70	-1	0	0	0	0
70	71	-1	0	0	0	0
71	72	-1	0	0	0	0
72	73	-1	0	0	0	0
73	74	-1	0	0	0	0
74	75	-1	0	0	0	0
75	76	-1	0	0	0	0
76	77	-1	0	0	0	0
77	78	-1	0	0	0	0
78	79	-1	0	0	0	0
79	80	-1	0	0	0	0
80	81	-1	0	0	0	0
81	82	-1	0	0	0	0
82	83	-1	0	0	0	0
83	84	-1	0	0	0	0
84	85	-1	0	0	0	0
85	86	-1	0	0	0	0
86	87	-1	0	0	0	0
87	88	-1	0	0	0	0
88	89	-1	0	0	0	0
89	90	-1	0	0	0	0
90	91	-1	0	0	0	0
91	92	-1	0	0	0	0
92	93	-1	0	0	0	0
93	94	-1	0	0	0	0
94	95	-1	0	0	0	0
95	96	-1	0	0	0	0
96	97	-1	0	0	0	0
97	98	-1	0	0	0	0
98	99	-1	0	0	0	0
99	0	-1	0	0	0	0
100	101	-1	0	0	0	0
101	102	-1	0	0	0	0
102	103	-1	0	0	0	0
103	100	-1	0	0	0	0
104	105	-1	0	0	0	0
105	106	-1	0	0	0	0
106	107	-1	0	0	0	0
107	104	-1	0	0	0	0
108	109	-1	0	0	0	0
109	110	-1	0	0	0	0
110	111	-1	0	0	0	0
111	108	-1	0	0	0	0
112	113	-1	0	0	0	0
113	114	-1	0	0	0	0
114	115	-1	0	0	0	0
115	112	-1	0	0	0	0
116	117	-1	0	0	0	0
117	118	-1	0	0	0	0
118	119	-1	0	0	0	0
119	120	-1	0	0	0	0
120	121	-1	0	0	0	0
121	122	-1	0	0	0	0
122	123	-1	0	0	0	0
123	124	-1	0	0	0	0
124	125	-1	0	0	0	0
125	126	-1	0	0	0	0
126	127	-1	0	0	0	0
127	128	-1	0	0	0	0
128	129	-1	0	0	0	0
129	130	-1	0	0	0	0
130	131	-1	0	0	0	0
131	132	-1	0	0	0	0
132	133	-1	0	0	0	0
133	134	-1	0	0	0	0
134	135	-1	0	0	0	0
135	136	-1	0	0	0	0
136	137	-1	0	0	0	0
137	138	-1	0	0	0	0
138	139	-1	0	0	0	0
139	140	-1	0	0	0	0
140	141	-1	0	0	0	0
141	142	-1	0	0	0	0
142	143	-1	0	0	0	0
143	144	-1	0	0	0	0
144	145	-1	0	0	0	0
145	146	-1	0	0	0	0
146	147	-1	0	0	0	0
147	148	-1	0	0	0	0
148	149	-1	0	0	0	0
149	150	-1	0	0	0	0
150	151	-1	0	0	0	0
151	152	-1	0	0	0	0
152	153	-1	0	0	0	0
153	154	-1	0	0	0	0
154	155	-1	0	0	0	0
155	156	-1	0	0	0	0
156	157	-1	0	0	0	0
157	158	-1	0	0	0	0
158	159	-1	0	0	0	0
159	160	-1	0	0	0	0
160	161	-1	0	0	0	0
161	162	-1	0	0	0	0
162	163	-1	0	0	0	0
163	164	-1	0	0	0	0
164	165	-1	0	0	0	0
165	166	-1	0	0	0	0
166	167	-1	0	0	0	0
167	168	-1	0	0	0	0
168	169	-1	0	0	0	0
169	170	-1	0	0	0	0
170	171	-1	0	0	0	0
171	172	-1	0	0	0	0
172	173	-1	0	0	0	0
173	174	-1	0	0	0	0
174	175	-1	0	0	0	0
175	176	-1	0	0	0	0
176	177	-1	0	0	0	0
177	178	-1	0	0	0	0
178	179	-1	0	0	0	0
179	180	-1	0	0	0	0
180	181	-1	0	0	0	0
181	182	-1	0	0	0	0
182	183	-1	0	0	0	0
183	184	-1	0	0	0	0
184	185	-1	0	0	0	0
185	186	-1	0	0	0	0
186	187	-1	0	0	0	0
187	188	-1	0	0	0	0
188	189	-1	0	0	0	0
189	190	-1	0	0	0	0
190	191	-1	0	0	0	0
191	192	-1	0	0	0	0
192	193	-1	0	0	0	0
193	194	-1	0	0	0	0
194	195	-1	0	0	0	0
195	196	-1	0	0	0	0
196	197	-1	0	0	0	0
197	198	-1	0	0	0	0
198	199	-1	0	0	0	0
199	200	-1	0	0	0	0
200	201	-1	0	0	0	0
201	202	-1	0	0	0	0
202	203	-1	0	0	0	0
203	204	-1	0	0	0	0
204	205	-1	0	0	0	0
205	206	-1	0	0	0	0
206	207	-1	0	0	0	0
207	208	-1	0	0	0	0
208	209	-1	0	0	0	0
209	210	-1	0	0	0	0
210	211	-1	0	0	0	0
211	212	-1	0	0	0	0
212	213	-1	0	0	0	0
213	214	-1	0	0	0	0
214	215	-1	0	0	0	0
215	116	-1	0	0	0	0
216	217	-1	0	0	0	0
217	218	-1	0	0	0	0
218	219	-1	0	0	0	0
219	220	-1	0	0	0	0
220	221	-1	0	0	0	0
221	222	-1	0	0	0	0
222	223	-1	0	0	0	0
223	224	-1	0	0	0	0
224	225	-1	0	0	0	0
225	226	-1	0	0	0	0
226	227	-1	0	0	0	0
227	228	-1	0	0	0	0
228	229	-1	0	0	0	0
229	230	-1	0	0	0	0
230	231	-1	0	0	0	0
231	232	-1	0	0	0	0
232	233	-1	0	0	0	0
233	234	-1	0	0	0	0
234	235	-1	0	0	0	0
235	236	-1	0	0	0	0
236	237	-1	0	0	0	0
237	238	-1	0	0	0	0
238	239	-1	0	0	0	0
239	240	-1	0	0	0	0
240	241	-1	0	0	0	0
241	242	-1	0	0	0	0
242	243	-1	0	0	0	0
243	244	-1	0	0	0	0
244	245	-1	0	0	0	0
245	246	-1	0	0	0	0
246	247	-1	0	0	0	0
247	248	-1	0	0	0	0
248	249	-1	0	0	0	0
249	250	-1	0	0	0	0
250	251	-1	0	0	0	0
251	252	-1	0	0	0	0
252	253	-1	0	0	0	0
253	254	-1	0	0	0	0
254	255	-1	0	0	0	0
255	256	-1	0	0	0	0
256	257	-1	0	0	0	0
257	258	-1	0	0	0	0
258	259	-1	0	0	0	0
259	260	-1	0	0	0	0
260	261	-1	0	0	0	0
261	262	-1	0	0	0	0
262	263	-1	0	0	0	0
263	264	-1	0	0	0	0
264	265	-1	0	0	0	0
265	266	-1	0	0	0	0
266	267	-1	0	0	0	0
267	268	-1	0	0	0	0
268	269	-1	0	0	0	0
269	270	-1	0	0	0	0
270	271	-1	0	0	0	0
271	272	-1	0	0	0	0
272	273	-1	0	0	0	0
273	274	-1	0	0	0	0
274	275	-1	0	0	0	0
275	276	-1	0	0	0	0
276	277	-1	0	0	0	0
277	278	-1	0	0	0	0
278	279	-1	0	0	0	0
279	280	-1	0	0	0	0
280	281	-1	0	0	0	0
281	282	-1	0	0	0	0
282	283	-1	0	0	0	0
283	284	-1	0	0	0	0
284	285	-1	0	0	0	0
285	286	-1	0	0	0	0
286	287	-1	0	0	0	0
287	288	-1	0	0	0	0
288	289	-1	0	0	0	0
289	290	-1	0	0	0	0
290	291	-1	0	0	0	0
291	292	-1	0	0	0	0
292	293	-1	0	0	0	0
293	294	-1	0	0	0	0
294	295	-1	0	0	0	0
295	296	-1	0	0	0	0
296	297	-1	0	0	0	0
297	298	-1	0	0	0	0
298	299	-1	0	0	0	0
299	300	-1	0	0	0	0
300	301	-1	0	0	0	0
301	302	-1	0	0	0	0
302	303	-1	0	0	0	0
303	304	-1	0	0	0	0
304	305	-1	0	0	0	0
305	306	-1	0	0	0	0
306	307	-1	0	0	0	0
307	308	-1	0	0	0	0
308	309	-1	0	0	0	0
309	310	-1	0	0	0	0
310	311	-1	0	0	0	0
311	312	-1	0	0	0	0
312	313	-1	0	0	0	0
313	314	-1	0	0	0	0
314	315	-1	0	0	0	0
315	216	-1	0	0	0	0
[NumArcSegments] = 16
316	317	180	1	0	0	0	0
317	316	180	1	0	0	0	0
318	319	180	1	0	0	0	0
319	318	180	1	0	0	0	0
320	321	180	1	0	0	0	0
321	320	180	1	0	0	0	0
322	323	180	1	0	0	0	0
323	322	180	1	0	0	0	0
324	325	180	1	0	0	0	0
325	324	180	1	0	0	0	0
326	327	180	1	0	0	0	0
327	326	180	1	0	0	0	0
328	329	180	1	0	0	0	0
329	328	180	1	0	0	0	0
330	331	180	1	0	0	0	0
331	330	180	1	0	0	0	0
[NumHoles] = 0
[NumBlockLabels] = 15
-8.6899999999999995	-0.050000000000000003	1	-1	0	0
8.7599999999999998	-0.029999999999999999	1	-1	0	0
0.13	-0.12	4	-1	0	0
5.6399999999999997	-0.12	3	-1	0	0
-4.9699999999999998	-0.25	3	-1	0	0
-10.74	-0.050000000000000003	3	-1	0	0
10.720000000000001	0.050000000000000003	3	-1	0	0
-2.79	4.8600000000000003	2	-1	0	0
18.829839129697451	3.5798748294669913	5	-1	0	0
18.537164526909589	6.2526150277871499	6	-1	0	0
17.862477810967679	8.8940182292627519	7	-1	0	0
16.809055765779192	11.449085516367919	8	-1	0	0
15.388141953140572	13.863161728163314	9	-1	0	0
13.618908106910732	16.08309509471454	10	-1	0	0
11.528246122778121	18.058391761251993	11	-1	0	0
