[Format]      =  1
[Precision]   =  1e-008
[MinAngle]    =  30
[Depth]       =  4
[LengthUnits] =  millimeters
[ProblemType] =  planar
[Coordinates] =  cartesian
[PrevSoln] = "\\vwifbof00v11.vwinf.vw.vwg\FMEC4TQ\Eigene Dateien\Konzepte\Axoquarium\Simulationen\LEDcooling_T0.anh"
[dT] = 300
[Comment]     =  "Add comments here."
[PointProps]   = 0
[BdryProps]   = 5
  <BeginBdry>
    <BdryName> = "CopperEmission"
    <BdryType> = 3
    <Tset> = 0
    <qs>   = 0
    <beta> = 0.78000000000000003
    <h>    = 0
    <Tinf> = 300
  <EndBdry>
  <BeginBdry>
    <BdryName> = "FR4Flux"
    <BdryType> = 1
    <Tset> = 0
    <qs>   = 0.10000000000000001
    <beta> = 0
    <h>    = 0
    <Tinf> = 0
  <EndBdry>
  <BeginBdry>
    <BdryName> = "T100"
    <BdryType> = 0
    <Tset> = 400
    <qs>   = 0
    <beta> = 0
    <h>    = 0
    <Tinf> = 0
  <EndBdry>
  <BeginBdry>
    <BdryName> = "T20"
    <BdryType> = 0
    <Tset> = 293
    <qs>   = 0
    <beta> = 0
    <h>    = 0
    <Tinf> = 0
  <EndBdry>
  <BeginBdry>
    <BdryName> = "CopperEmi+Conv"
    <BdryType> = 1
    <Tset> = 0
    <qs>   = 8
    <beta> = 0
    <h>    = 0
    <Tinf> = 0
  <EndBdry>
[BlockProps]  = 17
  <BeginBlock>
    <BlockName> = "Copper, Pure"
    <Kx> = 401
    <Ky> = 401
    <Kt> = 3
    <qv> = 0
    <TKPoints> = 6
      273	401
      473	389
      673	378
      873	366
      1073	352
      1273	336
  <EndBlock>
  <BeginBlock>
    <BlockName> = "FR4"
    <Kx> = 0.90000000000000002
    <Ky> = 0.29999999999999999
    <Kt> = 0
    <qv> = 0
  <EndBlock>
  <BeginBlock>
    <BlockName> = "Air"
    <Kx> = 0.018100000000000002
    <Ky> = 0.018100000000000002
    <Kt> = 3
    <qv> = 0
    <TKPoints> = 18
      200	0.018100000000000002
      250	0.0223
      300	0.026100000000000002
      350	0.029700000000000001
      400	0.033099999999999997
      450	0.036299999999999999
      500	0.0395
      550	0.042599999999999999
      600	0.045600000000000002
      700	0.051299999999999998
      800	0.056899999999999999
      900	0.0625
      1000	0.067199999999999996
      1200	0.075899999999999995
      1400	0.083500000000000005
      1600	0.090399999999999994
      1800	0.097000000000000003
      2000	0.1032
  <EndBlock>
  <BeginBlock>
    <BlockName> = "e1"
    <Kx> = 2.6498996896116669
    <Ky> = 2.6498996896116669
    <Kt> = 0
    <qv> = 0
  <EndBlock>
  <BeginBlock>
    <BlockName> = "e2"
    <Kx> = 0.12953316809300527
    <Ky> = 0.12953316809300527
    <Kt> = 0
    <qv> = 0
  <EndBlock>
  <BeginBlock>
    <BlockName> = "e3"
    <Kx> = 14.398967120915913
    <Ky> = 14.398967120915913
    <Kt> = 0
    <qv> = 0
  <EndBlock>
  <BeginBlock>
    <BlockName> = "e4"
    <Kx> = 0.042882574356338271
    <Ky> = 0.042882574356338271
    <Kt> = 0
    <qv> = 0
  <EndBlock>
  <BeginBlock>
    <BlockName> = "e5"
    <Kx> = 37.197476986533054
    <Ky> = 37.197476986533054
    <Kt> = 0
    <qv> = 0
  <EndBlock>
  <BeginBlock>
    <BlockName> = "e6"
    <Kx> = 0.015664246064106369
    <Ky> = 0.015664246064106369
    <Kt> = 0
    <qv> = 0
  <EndBlock>
  <BeginBlock>
    <BlockName> = "e7"
    <Kx> = 142.03015659052124
    <Ky> = 142.03015659052124
    <Kt> = 0
    <qv> = 0
  <EndBlock>
  <BeginBlock>
    <BlockName> = "e1"
    <Kx> = 2.6498996896116669
    <Ky> = 2.6498996896116669
    <Kt> = 0
    <qv> = 0
  <EndBlock>
  <BeginBlock>
    <BlockName> = "e2"
    <Kx> = 0.12953316809300527
    <Ky> = 0.12953316809300527
    <Kt> = 0
    <qv> = 0
  <EndBlock>
  <BeginBlock>
    <BlockName> = "e3"
    <Kx> = 14.398967120915913
    <Ky> = 14.398967120915913
    <Kt> = 0
    <qv> = 0
  <EndBlock>
  <BeginBlock>
    <BlockName> = "e4"
    <Kx> = 0.042882574356338271
    <Ky> = 0.042882574356338271
    <Kt> = 0
    <qv> = 0
  <EndBlock>
  <BeginBlock>
    <BlockName> = "e5"
    <Kx> = 37.197476986533054
    <Ky> = 37.197476986533054
    <Kt> = 0
    <qv> = 0
  <EndBlock>
  <BeginBlock>
    <BlockName> = "e6"
    <Kx> = 0.015664246064106369
    <Ky> = 0.015664246064106369
    <Kt> = 0
    <qv> = 0
  <EndBlock>
  <BeginBlock>
    <BlockName> = "e7"
    <Kx> = 142.03015659052124
    <Ky> = 142.03015659052124
    <Kt> = 0
    <qv> = 0
  <EndBlock>
[ConductorProps]  = 1
  <BeginConductor>
    <ConductorName> = "LED"
    <Tc> = 0
    <qc> = 0.5
    <ConductorType> = 0
  <EndConductor>
[NumPoints] = 8
0	0	0	0	0
4	0	0	0	0
0	0.050000000000000003	0	0	0
4	0.050000000000000003	0	0	0
0	-1.5	0	0	0
4	-1.5	0	0	0
0	-1.55	0	0	0
4	-1.55	0	0	0
[NumSegments] = 10
2	3	-1	5	0	0	0
3	1	-1	5	0	0	0
1	0	-1	0	0	0	0
0	2	-1	5	0	0	0
4	5	-1	0	0	0	0
5	7	-1	0	0	0	1
7	6	-1	0	0	0	0
6	4	-1	5	0	0	0
0	4	-1	0	0	0	0
1	5	-1	0	0	0	0
[NumArcSegments] = 0
[NumHoles] = 0
[NumBlockLabels] = 3
2.0600000000000001	-0.79000000000000004	2	-1	0	0
2.0800000000000001	-1.53	1	-1	0	0
2.02	0.01	1	-1	0	0
[Solution]
3036
0	0.050000000000000003	31513.319699000662	-2
0.0038399999999999988	0.050000000000000003	31513.319697488962	-2
0	0.046160000000000007	31513.319705262296	-2
0.011637499999999999	0.050000000000000003	31513.319695456627	-2
0.0065890715847697467	0.043410928415230254	31513.319717590031	-2
0	0.035580000000000001	31513.319807189826	-2
0.019434999999999997	0.050000000000000003	31513.319697898936	-2
0.011637499999999999	0.038362500000000001	31513.319744569719	-2
0	0.025000000000000001	31513.320010109444	-2
0.035029999999999999	0.050000000000000003	31513.319719322677	-2
0.027232499999999996	0.036344385606874335	31513.319802167855	-2
0.0272325	0.013655614393125671	31513.320288790674	-2
0.011637499999999999	0.011637499999999999	31513.320352960691	-2
0	0.014420000000000001	31513.320286367638	-2
0.066220000000000001	0.050000000000000003	31513.319746910733	-2
0.045204324688272311	0.035136318567193028	31513.319818963268	-2
0.050625000000000003	0.017958944269495934	31513.320196383207	-2
0.035029999999999999	0	31513.320825332285	-2
0.019434999999999997	0	31513.320812940754	-2
0.0065890715847697441	0.0065890715847697441	31513.320548933534	-2
0.011637499999999999	0	31513.320818129567	-2
0	0.0038399999999999988	31513.3206592973	-2
0.097409999999999997	0.050000000000000003	31513.31974517195	-2
0.076871475126641109	0.025000000000000001	31513.320056904373	-2
0.066220000000000001	0	31513.320859881445	-2
0.050624999999999996	-0.039708385051213817	31515.31322730246	-2
0.015498749999999997	-0.01549875	31514.098470743193	-2
0.0085736334921292442	-0.0085736334921292495	31513.75100142874	-2
0.0038399999999999988	0	31513.320823216312	-2
0	0	31513.320824938073	-2
0.12859999999999999	0.050000000000000003	31513.319804544968	-2
0.097409999999999997	0	31513.320768101654	-2
0.081814999999999999	-0.02904132106355909	31514.778139852562	-2
0.020904608637793365	-0.038816249999999997	31515.268410850247	-2
0.02670786474550509	-0.073792499999999997	31517.023104853881	-2
0.083624073771015023	-0.088297630758629092	31517.751129479988	-2
0	-0.015498749999999997	31514.098468401164	-2
0	-0.027157499999999998	31514.683439887856	-2
0	-0.0038399999999999988	31513.513493636063	-2
0.15978999999999999	0.050000000000000003	31513.319879847739	-2
0.12859999999999999	0	31513.320946737047	-2
0.11300499999999999	-0.04765986542531174	31515.712575746031	-2
0	-0.050474999999999999	31515.853327089542	-2
0	-0.097110000000000002	31518.192690687425	-2
0.037465435182338608	-0.11306856557196485	31518.993120759435	-2
0.14424857643798039	-0.10118885736891951	31518.398611877124	-2
0.11286112328802836	-0.1519446379319162	31520.943509212339	-2
0.064247724466475184	-0.14374500000000001	31520.531668133717	-2
0.19097999999999998	0.050000000000000003	31513.320238402743	-2
0.19097999999999998	0	31513.321184675053	-2
0.16864142683982369	-0.051068785754943113	31515.884273404012	-2
0	-0.14374500000000001	31520.531231997251	-2
0.18976358186602985	-0.11683894450568129	31519.184704495507	-2
0.16136702753490997	-0.16075791543749046	31521.386590880837	-2
0.090266390292314147	-0.19576215324315094	31523.139188768098	-2
0.14384008777879553	-0.21840313689018145	31524.2751589578	-2
0	-0.19037999999999999	31522.868514054542	-2
0.040612404277444565	-0.21369749999999998	31524.037057163481	-2
0.25335999999999997	0.050000000000000003	31513.320556809893	-2
0.22216999999999998	-0.034640115571620209	31515.060448091255	-2
0.25335999999999997	0	31513.321795954034	-2
0.22216999999999998	-0.081252921825000879	31517.400055794002	-2
0.22515447177959583	-0.14945835372211963	31520.822235140229	-2
0.20121489916503599	-0.2000103069845475	31523.355803588671	-2
0.095031160007013199	-0.25372811025624625	31526.042722931699	-2
0.1816015155864458	-0.23751233396155136	31525.233793290558	-2
0.1512594433482311	-0.28003696614496681	31527.36170631646	-2
0	-0.23701499999999998	31525.204681914722	-2
0.044884401754573866	-0.26033249999999997	31526.372364438383	-2
0.28454999999999997	0.050000000000000003	31513.320777381272	-2
0.28454999999999997	-0.054436595047663169	31516.055496887078	-2
0.31574000000000002	0	31513.322341664552	-2
0.26585756224804369	-0.096916522794894266	31518.187435732103	-2
0.28877849473826345	-0.13727222058714567	31520.213555717204	-2
0.25683082778907601	-0.20596611078421728	31523.657301861305	-2
0.29375249208992449	-0.18136143418474571	31522.425803029135	-2
0.21195476044843184	-0.2670041526428934	31526.712745719771	-2
0.075552178584899501	-0.2995082508764238	31528.333216434865	-2
0.14876952025272477	-0.32531599687996754	31529.626792969084	-2
0.19382743894187004	-0.33043207982740375	31529.885378133669	-2
0.10649325994876602	-0.32849124348067299	31529.783663898383	-2
0	-0.28364999999999996	31527.538999703513	-2
0.31574000000000002	0.050000000000000003	31513.321199044985	-2
0.31399945864947032	-0.096260322715187779	31518.156231904388	-2
0.33133500000000005	-0.030568468429295632	31514.857906098008	-2
0.34692999999999996	-0.061136936858591291	31516.393703707778	-2
0.34693000000000002	0	31513.322593735506	-2
0.35440851643000942	-0.12712442961895609	31519.707771237772	-2
0.25763689087303426	-0.26048672692240415	31526.38934326934	-2
0.29589520208478365	-0.23468681410515974	31525.09949891995	-2
0.33252925603139616	-0.20292441133393629	31523.509732943858	-2
0.36561885376571568	-0.17141789045565597	31521.931758768314	-2
0.24803406599242084	-0.31161970549014689	31528.948418579035	-2
0.069315813450177538	-0.34886774583284236	31530.80078501426	-2
0	-0.33028499999999994	31529.871270567801	-2
0.17987087820735417	-0.36680399222689586	31531.702412659408	-2
0.14104455739104252	-0.37000061716601562	31531.859635607951	-2
0.22448451285245838	-0.36058784266351557	31531.395344638524	-2
0.097674439096381099	-0.38491002657924966	31532.6021743608	-2
0.37812000000000001	0.050000000000000003	31513.321841793138	-2
0.36580841114320051	-0.032243553882027709	31514.94288300239	-2
0.3828864818098317	-0.064016151569289831	31516.539634131233	-2
0.37812000000000001	0	31513.323140495948	-2
0.40931000000000001	-0.089759947679456775	31517.834026234839	-2
0.42551400795307132	-0.12860898003540738	31519.78655232086	-2
0.29784189110367348	-0.28313384229294924	31527.526897285832	-2
0.33760438174112556	-0.25727348883197526	31526.235159671698	-2
0.38481089585254458	-0.25265195572397176	31526.008381834763	-2
0.40931000000000001	-0.1847844934948345	31522.606148319384	-2
0.29919189700753107	-0.33350609708332918	31530.048290637071	-2
0.26608177291174168	-0.37149170292249972	31531.944308421978	-2
0.044621205146868494	-0.38751271925359265	31532.730617242636	-2
0	-0.37691999999999998	31532.201206693444	-2
0.16335009204672138	-0.40353318573315639	31533.535382105296	-2
0.20323845250189318	-0.39797542258743202	31533.261226331702	-2
0.12386364310727166	-0.41766835962876098	31534.238325224695	-2
0.072979830793072048	-0.42355499999999996	31534.529628918368	-2
0.4405	0.050000000000000003	31513.32283906026	-2
0.4405	0	31513.323837685351	-2
0.40931000000000001	-0.039460986166774077	31515.30668199826	-2
0.43733748980451331	-0.059400171826329236	31516.309651355979	-2
0.45268404724656586	-0.096459234258389856	31518.172953454985	-2
0.46728328780696249	-0.13381901355009948	31520.051323924974	-2
0.47260140430298725	-0.18603405106204804	31522.674588521262	-2
0.34434543054839251	-0.31113770470967594	31528.934087862926	-2
0.40965099856555831	-0.28495803504967987	31527.630613465702	-2
0.44013871410212602	-0.22679057578936554	31524.717189733921	-2
0.33990301569055648	-0.3703709434718111	31531.897116608485	-2
0.27629308233347077	-0.41564153607604465	31534.150759520558	-2
0	-0.42355500000000001	31534.528263741369	-2
0.036489915396536038	-0.44518184834271002	31535.606965717197	-2
0.16337668128454913	-0.44710568678647461	31535.709034521511	-2
0.25263474596295821	-0.45429074988139684	31536.07615867729	-2
0.2024219365475724	-0.4664455832824318	31536.676778246852	-2
0.12161855538004585	-0.45954845480539369	31536.326292733596	-2
0.063861343616872748	-0.4775861599703915	31537.222144042957	-2
0.50287999999999999	0.050000000000000003	31513.323810331331	-2
0.47169	0	31513.324238553258	-2
0.45609500000000003	-0.030568468429295659	31514.860972219387	-2
0.47169	-0.061136936858591319	31516.398354456258	-2
0.49386826396356176	-0.095844886061364057	31518.144574405047	-2
0.52219100178543465	-0.16884206668070534	31521.816021604311	-2
0.50074432980992178	-0.23033606286005356	31524.902540013332	-2
0.39714583092998629	-0.32374378303264728	31529.571845500443	-2
0.38143649282368441	-0.36290913725162033	31531.529751998249	-2
0.44980295096981726	-0.27799138719593108	31527.286616508009	-2
0.43800400873987838	-0.31758994061300777	31529.269646654531	-2
0.49297098942730755	-0.27308138794069592	31527.046659248699	-2
0.33914131195001901	-0.41838308100392502	31534.296340188885	-2
0.30421307371013251	-0.45133400992024997	31535.935696055043	-2
0	-0.47019	31536.852814118862	-2
0.15918639612886948	-0.49619701657136145	31538.154201213609	-2
0.23208500535084145	-0.49309580036011824	31538.00739684276	-2
0.27079864444471086	-0.50265539602232667	31538.488539345417	-2
0.20642278887952509	-0.52361763462502753	31539.52333945351	-2
0.10210825838472487	-0.51682499999999998	31539.176786615746	-2
0	-0.51682499999999998	31539.173745973236	-2
0.046169042907909026	-0.5294465065923738	31539.801985979091	-2
0.56525999999999998	0.050000000000000003	31513.324756724898	-2
0.50287999999999999	0	31513.324808477388	-2
0.49056841114320043	-0.032243553882027702	31514.946280276792	-2
0.53407000000000004	-0.047763060288043571	31515.728501073332	-2
0.53406999999999993	-0.10480800772494885	31518.59798952346	-2
0.55064216269185884	-0.2067306930756618	31523.723173825172	-2
0.57207907867027941	-0.14497796527682372	31520.621268460302	-2
0.56347352700937714	-0.25234179541676893	31526.016309875387	-2
0.40979613220048017	-0.39415716325733519	31533.097508381103	-2
0.46510438187979464	-0.34878016738595408	31530.836219402318	-2
0.52265185274599035	-0.30480888373868542	31528.64247969865	-2
0.34657348532144006	-0.46374964283194359	31536.561591174504	-2
0.38275788370134994	-0.43846641269097264	31535.306257499371	-2
0.32800206515041752	-0.50379530133956041	31538.55446899285	-2
0.15244073245643905	-0.54824464629319769	31540.7422997055	-2
0.25038068092885418	-0.56039200070633499	31541.357726082897	-2
0.3025362909622975	-0.55503029982268726	31541.099633451089	-2
0.20206982334053428	-0.58076395528628133	31542.36270168957	-2
0.099441414563421773	-0.57712182477946672	31542.172462834871	-2
0	-0.56345999999999996	31541.491021827838	-2
0.047455686494027517	-0.58677749999999995	31542.649230635339	-2
0.62763999999999998	0.050000000000000003	31513.326107652549	-2
0.56525999999999998	0	31513.326049261606	-2
0.59644999999999992	0	31513.326459737942	-2
0.5808549999999999	-0.033163417292883503	31514.99563440257	-2
0.59644999999999992	-0.066326834585766992	31516.665800659252	-2
0.6114887755246472	-0.10550589309146147	31518.638821646753	-2
0.59644999999999992	-0.19462042436804414	31523.120466036034	-2
0.63725986074055307	-0.13862710323644067	31520.308482567798	-2
0.57193429723669353	-0.29679223855290709	31528.249066384913	-2
0.62078640195127133	-0.24680440527894981	31525.747239695593	-2
0.45764636297130568	-0.3951860868605338	31533.157480211466	-2
0.42494312593226929	-0.46871177275151221	31536.824570936857	-2
0.46310267741278149	-0.44186970326967995	31535.49209177079	-2
0.50865322416664871	-0.34613146459808253	31530.711464948185	-2
0.55590214080289491	-0.3391053155849631	31530.368499352946	-2
0.38361863007156199	-0.49036665915434885	31537.895930736035	-2
0.36768997177971235	-0.54628207442356203	31540.677526766645	-2
0.1496288452698869	-0.61069325972132238	31543.841761515341	-2
0.28510103859716907	-0.59157137839319018	31542.911790895854	-2
0.25063865379167988	-0.61282184854445454	31543.960532044588	-2
0.35144162726097888	-0.60210543082666279	31543.448647969319	-2
0.20638282726538124	-0.62705028912180105	31544.659065628573	-2
0.095448743394013505	-0.63734538919893569	31545.157940083682	-2
0	-0.61009500000000005	31543.804845273353	-2
0.040913533090055978	-0.63341250000000004	31544.960687429142	-2
0.69001999999999997	0.050000000000000003	31513.32729928807	-2
0.62763999999999998	0	31513.327125472559	-2
0.61797959717123951	-0.03595414425772317	31515.137592832161	-2
0.63788768103395166	-0.072882876943591704	31516.998403218804	-2
0.64259697221471734	-0.19851645025670264	31523.322696861243	-2
0.70561499999999988	-0.12730139434772925	31519.745076770854	-2
0.67719872104112133	-0.16773592003928361	31521.778357200255	-2
0.67859715012227628	-0.083022020271104863	31517.512004810098	-2
0.61656741673080828	-0.30422938666643595	31528.630955391247	-2
0.65923929243103474	-0.24485514594724159	31525.65571198802	-2
0.67561735280784441	-0.27970028242974815	31527.410919702765	-2
0.5006482781795647	-0.41415887518334654	31534.115311765658	-2
0.46382819565648714	-0.49449159850352398	31538.119339746143	-2
0.42830878591105925	-0.53332408189127556	31540.046425490487	-2
0.50258124465087017	-0.46078317969065047	31536.446092684142	-2
0.53407000000000004	-0.38159277869134395	31532.49236861652	-2
0.57213283498710976	-0.39437507911441261	31533.141200375736	-2
0.6279828115665147	-0.34083928253307338	31530.470913059224	-2
0.60531988488704014	-0.37177449659313555	31532.016963848186	-2
0.40097495490641377	-0.58624659692354708	31542.672541852338	-2
0.13914142616871433	-0.65777018422084987	31546.172341160363	-2
0.30747691720575132	-0.62531391096893763	31544.590102990489	-2
0.2770877928506581	-0.66465892846398111	31546.533507033531	-2
0.42031731555944396	-0.62630689596685662	31544.666778286646	-2
0.33361382353772467	-0.66760328798194468	31546.691674876711	-2
0.3894541231744571	-0.65834465230026062	31546.247284199893	-2
0.20168599757379607	-0.67329925120352951	31546.947973724513	-2
0.097075137848661092	-0.68091763331803268	31547.313286430566	-2
0	-0.65673000000000004	31546.113593994432	-2
0.058874072478208861	-0.70193819993881457	31548.349594430907	-2
0.75239999999999996	0.050000000000000003	31513.328882687139	-2
0.69001999999999997	0	31513.328595902243	-2
0.72120999999999991	0	31513.329122714218	-2
0.65882999999999992	-0.035064883610580251	31515.094535742221	-2
0.68527711139142766	-0.21649220565578489	31524.233667826829	-2
0.74115545446940601	-0.10714329986252756	31518.733056869005	-2
0.74273647132803799	-0.18268027860541483	31522.540295352552	-2
0.73680499999999993	-0.066516384854421517	31516.68425192517	-2
0.70561499999999999	-0.038742646194480562	31515.282089361113	-2
0.66633085113863055	-0.34068573906515121	31530.472302986684	-2
0.7260280610312122	-0.3251387726304415	31529.705708361093	-2
0.7170082947438533	-0.28446279213611619	31527.659049251793	-2
0.54146988189378908	-0.4226200433366753	31534.54786200232	-2
0.48335096013365547	-0.54336338895458702	31540.560705465254	-2
0.51228770686182368	-0.50346879146846413	31538.57964767993	-2
0.4528303087229022	-0.59025601595420585	31542.885772002257	-2
0.54585596370190281	-0.46738435780921994	31536.78712928624	-2
0.59156081824140161	-0.42951366300779792	31534.905703436798	-2
0.6478897993449354	-0.37990628475813126	31532.435383689346	-2
0.65057596165366949	-0.42316259213363455	31534.604072074184	-2
0.13301215386824652	-0.70561007135287146	31548.536032424508	-2
0.17701223865291865	-0.70999287534454614	31548.757722815673	-2
0.30312007286188364	-0.70895692928165066	31548.729794323335	-2
0.24452360661316233	-0.71359378362611481	31548.946543588547	-2
0.45422959781839861	-0.65509772066953353	31546.105781734841	-2
0.3621810105010026	-0.71646817544944363	31549.116055728548	-2
0.42632295133433862	-0.71364363224648508	31548.995738592323	-2
0.094111047116815588	-0.7407650449359201	31550.267444107889	-2
0	-0.70336500000000002	31548.418642255576	-2
0.047297401777089701	-0.7478474410600866	31550.613384573116	-2
0.81477999999999995	0.050000000000000003	31513.330293432631	-2
0.75239999999999996	0	31513.329904837661	-2
0.73680499999999993	-0.028787459405244183	31514.781483597671	-2
0.72606622370231122	-0.22007981715136549	31524.421282951709	-2
0.77997646456339376	-0.08048786311319639	31517.392233175986	-2
0.77750824664231244	-0.12579664214748335	31519.677636646869	-2
0.78365879879780831	-0.17667810118508737	31522.243905705935	-2
0.7960589094819841	-0.21613567681193493	31524.235241240538	-2
0.7835899999999999	-0.035256016821759398	31515.110049529612	-2
0.70192222649617175	-0.35496333391791668	31531.197987742806	-2
0.76938031128033979	-0.30007967922486312	31528.456775323375	-2
0.77300896689623766	-0.37030018505861739	31531.988732814578	-2
0.74683257897087274	-0.25536977504611208	31526.201473919373	-2
0.5057103065600933	-0.57596617988973198	31542.190299694907	-2
0.53834642342045802	-0.55365550473959702	31541.089866501548	-2
0.58036834574234464	-0.52749917585194528	31539.799021029918	-2
0.49390920366308516	-0.61369702032289031	31544.062929780604	-2
0.59503824344603462	-0.48022561455317125	31537.442876069243	-2
0.64301375250865456	-0.47136062614132734	31537.014418814342	-2
0.71158692790526001	-0.39207383460565026	31533.063275632172	-2
0.68886963504539078	-0.42290235629647582	31534.60260360652	-2
0.15228768556413086	-0.74676203812204844	31550.568159867787	-2
0.19767071656656737	-0.74908819120436576	31550.689344404062	-2
0.28662314125346472	-0.75761742379755392	31551.127179607021	-2
0.34033907351541359	-0.76630616729323209	31551.569273224639	-2
0.24114321251538115	-0.763820690282357	31551.422755316453	-2
0.45939011218004461	-0.69348152800326923	31548.008766955165	-2
0.49025304678553111	-0.6697933514676897	31546.846367154718	-2
0.39445768143162263	-0.77196937482215111	31551.865081064807	-2
0.42694341761657145	-0.75185000671562896	31550.883163805614	-2
0.46028873835913925	-0.73220025790108922	31549.92443691579	-2
0.12502259951078773	-0.78311648177938264	31552.354004457993	-2
0.093526176781545831	-0.81540308645621928	31553.938323582293	-2
0.052863414968657048	-0.79663499999999998	31553.013833765621	-2
0	-0.75	31550.718430145178	-2
0	-0.79663499999999998	31553.012557503214	-2
0.87715999999999994	0.050000000000000003	31513.331960815551	-2
0.81477999999999995	0	31513.331610030938	-2
0.84596999999999989	0	31513.332272526444	-2
0.83037499999999986	-0.077052313437632469	31517.223264412612	-2
0.81956179780677108	-0.15614428318914161	31521.214052324096	-2
0.79839161732202912	-0.26308846478303372	31526.60133376715	-2
0.85499267044906191	-0.19401424154851729	31523.13065031551	-2
0.84500099638094639	-0.25695889645662412	31526.303376074418	-2
0.83037499999999986	-0.03006307958584083	31514.850340655088	-2
0.81736604021391235	-0.314388612891848	31529.189384310655	-2
0.72992548631697785	-0.42627221709895668	31534.784701982968	-2
0.81857451837234418	-0.40673335684152256	31533.833819376239	-2
0.83902571646699342	-0.36028544091201564	31531.505381583946	-2
0.76767797953169192	-0.4352489284038526	31535.247769235677	-2
0.54004758272819897	-0.60329479591831525	31543.561191536719	-2
0.58018502702472585	-0.57403836522249918	31542.119384258254	-2
0.62896143942439053	-0.51808075013882415	31539.344982941817	-2
0.62121282121946519	-0.56056373919351665	31541.46244853357	-2
0.52390334261152338	-0.65026624131624833	31545.889432581018	-2
0.70625594054071428	-0.45702257795088552	31536.317423750526	-2
0.68489107061904364	-0.50942970168555379	31538.932753333444	-2
0.17327773756130621	-0.79157439068898139	31552.776271469902	-2
0.22472736762127454	-0.8171444543758658	31554.042391150797	-2
0.26999662643266081	-0.7995192188013418	31553.185409550475	-2
0.30599443968329521	-0.8266551518200963	31554.528878020596	-2
0.35020007626313754	-0.82041276599012969	31554.23478769869	-2
0.4946108039352104	-0.71197493235773612	31548.93722115675	-2
0.55649814288346011	-0.68760565418745234	31547.754336464801	-2
0.42757287083923773	-0.79060976888909174	31552.794566688386	-2
0.3907509364575717	-0.84176222414584401	31555.297719143811	-2
0.46006532245020615	-0.7709039157286236	31551.835412020264	-2
0.52242629036303601	-0.76787114622479336	31551.711295774559	-2
0.1363433782465189	-0.82853276757145422	31554.586978724041	-2
0.10079722043184865	-0.85959395872318456	31556.105892318508	-2
0.044144951176311731	-0.86658749999999996	31556.444581667114	-2
0	-0.84326999999999996	31555.300719567967	-2
0.93953999999999993	0.050000000000000003	31513.333887504108	-2
0.87715999999999994	0	31513.333276271114	-2
0.93953999999999993	0	31513.334894313044	-2
0.86156499999999991	-0.043260680852154322	31515.518700001929	-2
0.86807541474484096	-0.092084279556962481	31517.986044913694	-2
0.86577230099970637	-0.13260559424963611	31520.032199787678	-2
0.91257023950243554	-0.17380238234994261	31522.120455811775	-2
0.90748664344350949	-0.23461235489942406	31525.190409056202	-2
0.88422350088218782	-0.268098498007036	31526.87434707057	-2
0.86282895255307079	-0.30748127086652144	31528.853967199604	-2
0.86410590479528215	-0.44450969371350413	31535.748475889952	-2
0.81811741683269812	-0.46559708516646603	31536.788787262769	-2
0.87578001880105705	-0.39528232159640486	31533.27849375728	-2
0.88723246711156545	-0.3464563430204789	31530.824565935651	-2
0.77645692078908146	-0.48574534914580325	31537.782066470398	-2
0.73183450914249715	-0.49800870312520157	31538.379081151757	-2
0.5736839850112786	-0.64111587478712195	31545.454123290594	-2
0.61198123499841295	-0.60802263969635761	31543.823012898712	-2
0.66437552302559033	-0.56191526274209014	31541.546128793936	-2
0.65041436024785193	-0.59887335367096528	31543.383017439191	-2
0.71891516635424269	-0.54709236576242737	31540.828118438258	-2
0.18176701369195686	-0.83982402034740711	31555.147432048918	-2
0.26499403739542166	-0.84432073130427387	31555.385282311399	-2
0.22197203715861544	-0.86814127314546585	31556.542913806032	-2
0.30062313091320048	-0.87097506527190216	31556.701119620411	-2
0.34469934223495718	-0.86487806439636217	31556.416028775886	-2
0.53336986990643476	-0.72755634067168418	31549.723439008016	-2
0.60038179291104887	-0.69693424716027552	31548.235487005004	-2
0.57468757874393972	-0.73371202230955856	31550.046097299495	-2
0.46131287978272556	-0.80960187111708282	31553.742948572668	-2
0.427582359916518	-0.82861082111702966	31554.664672454899	-2
0.42148668950793505	-0.8659454133496195	31556.495963855879	-2
0.38663431764934286	-0.88065395341089803	31557.203955637113	-2
0.51427135664716217	-0.80844239652213257	31553.708392858305	-2
0.55223522127624514	-0.82491280261986744	31554.537753082121	-2
0.59442530313674624	-0.78693529265531281	31552.686307461634	-2
0.14722675328324136	-0.87405585176113276	31556.819107789343	-2
0.11949845551488224	-0.91400568747930333	31558.768608860646	-2
0.061967950239571218	-0.91322249999999994	31558.725153078802	-2
0	-0.88990499999999995	31557.584217701995	-2
1.0019199999999999	0.050000000000000003	31513.335761169034	-2
0.97072999999999987	0	31513.335748372625	-2
0.90834999999999988	-0.035684905692349958	31515.138644053786	-2
0.95513499999999996	-0.030145632165395366	31514.861004515227	-2
0.90834999999999988	-0.087060430447897741	31517.736177568531	-2
0.91746796132304176	-0.13009045523077467	31519.912326200694	-2
0.95351014303152348	-0.20191333844955064	31523.548863212003	-2
0.97072999999999987	-0.15533246168890633	31521.196902110412	-2
0.97849175344223538	-0.24483443693377543	31525.723927013969	-2
0.90834999999999999	-0.30096805264913679	31528.538742940174	-2
0.95511413685632662	-0.28751255672793785	31527.873091133697	-2
0.91366134016364631	-0.42012484586386795	31534.542312919642	-2
0.91006066340899627	-0.46528213372600347	31536.811460913981	-2
0.86920271576890706	-0.49484498571895819	31538.277432465027	-2
0.82073163047707132	-0.52026855940405814	31539.530486541178	-2
0.94247678549052594	-0.3851703664546583	31532.793921619115	-2
0.93922940150572909	-0.33746964885107583	31530.388772944403	-2
0.76707219503500546	-0.53106064892967353	31540.046892156322	-2
0.61509911016349494	-0.65033723430942569	31545.929066150478	-2
0.66429989398079825	-0.63585992561491156	31545.230722080232	-2
0.70335205130487455	-0.60261479659412343	31543.592328927945	-2
0.7536786790156943	-0.58677910050752424	31542.825484613862	-2
0.26644174820570871	-0.89946223607492293	31558.086330931255	-2
0.21403491074856645	-0.91667283753746376	31558.914584575934	-2
0.16671475726672164	-0.91717976158239711	31558.930365496766	-2
0.32800780952908531	-0.90645706839036011	31558.446064046224	-2
0.64284055175379939	-0.68244110450142981	31547.536006523489	-2
0.63805018057412488	-0.75061499063182568	31550.913491220988	-2
0.48956137777421838	-0.84163797211133295	31555.331082504068	-2
0.449850895408622	-0.89097541132259706	31557.735245652839	-2
0.36268414112405367	-0.93897628045272474	31560.047402431665	-2
0.41020697089234209	-0.94021231316083809	31560.126764616081	-2
0.55865971776475343	-0.87147752636785758	31556.830899588116	-2
0.60226897198452012	-0.85393384946553019	31555.993101454784	-2
0.64571052453493261	-0.81574446766946407	31554.135616876836	-2
0.1494099134447153	-0.96315522567013634	31561.168649833253	-2
0.10629403414169381	-0.95565237348431831	31560.797522158726	-2
0	-0.93653999999999993	31559.860723251491	-2
0.041209345975516648	-0.95205591591054362	31560.617351383768	-2
1.0642999999999998	0.050000000000000003	31513.337582490356	-2
1.0019199999999999	0	31513.3367676868	-2
0.98919686700306686	-0.031631312268804918	31514.938198759923	-2
0.93491523933314857	-0.059712394757567858	31516.355574766352	-2