[Format]      =  1
[Precision]   =  1e-008
[MinAngle]    =  30
[Depth]       =  4
[LengthUnits] =  millimeters
[ProblemType] =  planar
[Coordinates] =  cartesian
[PrevSoln] = ""
[dT] = 0
[Comment]     =  "Add comments here."
[PointProps]   = 0
[BdryProps]   = 5
  <BeginBdry>
    <BdryName> = "CopperEmission"
    <BdryType> = 3
    <Tset> = 0
    <qs>   = 0
    <beta> = 0.78000000000000003
    <h>    = 0
    <Tinf> = 300
  <EndBdry>
  <BeginBdry>
    <BdryName> = "FR4Flux"
    <BdryType> = 1
    <Tset> = 0
    <qs>   = 0.10000000000000001
    <beta> = 0
    <h>    = 0
    <Tinf> = 0
  <EndBdry>
  <BeginBdry>
    <BdryName> = "T100"
    <BdryType> = 0
    <Tset> = 400
    <qs>   = 0
    <beta> = 0
    <h>    = 0
    <Tinf> = 0
  <EndBdry>
  <BeginBdry>
    <BdryName> = "T20"
    <BdryType> = 0
    <Tset> = 293
    <qs>   = 0
    <beta> = 0
    <h>    = 0
    <Tinf> = 0
  <EndBdry>
  <BeginBdry>
    <BdryName> = "CopperEmi+Conv"
    <BdryType> = 1
    <Tset> = 0
    <qs>   = 12
    <beta> = 0
    <h>    = 0
    <Tinf> = 0
  <EndBdry>
[BlockProps]  = 17
  <BeginBlock>
    <BlockName> = "Copper, Pure"
    <Kx> = 401
    <Ky> = 401
    <Kt> = 3
    <qv> = 0
    <TKPoints> = 6
      273	401
      473	389
      673	378
      873	366
      1073	352
      1273	336
  <EndBlock>
  <BeginBlock>
    <BlockName> = "FR4"
    <Kx> = 0.90000000000000002
    <Ky> = 0.29999999999999999
    <Kt> = 0
    <qv> = 0
  <EndBlock>
  <BeginBlock>
    <BlockName> = "Air"
    <Kx> = 0.018100000000000002
    <Ky> = 0.018100000000000002
    <Kt> = 3
    <qv> = 0
    <TKPoints> = 18
      200	0.018100000000000002
      250	0.0223
      300	0.026100000000000002
      350	0.029700000000000001
      400	0.033099999999999997
      450	0.036299999999999999
      500	0.0395
      550	0.042599999999999999
      600	0.045600000000000002
      700	0.051299999999999998
      800	0.056899999999999999
      900	0.0625
      1000	0.067199999999999996
      1200	0.075899999999999995
      1400	0.083500000000000005
      1600	0.090399999999999994
      1800	0.097000000000000003
      2000	0.1032
  <EndBlock>
  <BeginBlock>
    <BlockName> = "e1"
    <Kx> = 2.6498996896116669
    <Ky> = 2.6498996896116669
    <Kt> = 0
    <qv> = 0
  <EndBlock>
  <BeginBlock>
    <BlockName> = "e2"
    <Kx> = 0.12953316809300527
    <Ky> = 0.12953316809300527
    <Kt> = 0
    <qv> = 0
  <EndBlock>
  <BeginBlock>
    <BlockName> = "e3"
    <Kx> = 14.398967120915913
    <Ky> = 14.398967120915913
    <Kt> = 0
    <qv> = 0
  <EndBlock>
  <BeginBlock>
    <BlockName> = "e4"
    <Kx> = 0.042882574356338271
    <Ky> = 0.042882574356338271
    <Kt> = 0
    <qv> = 0
  <EndBlock>
  <BeginBlock>
    <BlockName> = "e5"
    <Kx> = 37.197476986533054
    <Ky> = 37.197476986533054
    <Kt> = 0
    <qv> = 0
  <EndBlock>
  <BeginBlock>
    <BlockName> = "e6"
    <Kx> = 0.015664246064106369
    <Ky> = 0.015664246064106369
    <Kt> = 0
    <qv> = 0
  <EndBlock>
  <BeginBlock>
    <BlockName> = "e7"
    <Kx> = 142.03015659052124
    <Ky> = 142.03015659052124
    <Kt> = 0
    <qv> = 0
  <EndBlock>
  <BeginBlock>
    <BlockName> = "e1"
    <Kx> = 2.6498996896116669
    <Ky> = 2.6498996896116669
    <Kt> = 0
    <qv> = 0
  <EndBlock>
  <BeginBlock>
    <BlockName> = "e2"
    <Kx> = 0.12953316809300527
    <Ky> = 0.12953316809300527
    <Kt> = 0
    <qv> = 0
  <EndBlock>
  <BeginBlock>
    <BlockName> = "e3"
    <Kx> = 14.398967120915913
    <Ky> = 14.398967120915913
    <Kt> = 0
    <qv> = 0
  <EndBlock>
  <BeginBlock>
    <BlockName> = "e4"
    <Kx> = 0.042882574356338271
    <Ky> = 0.042882574356338271
    <Kt> = 0
    <qv> = 0
  <EndBlock>
  <BeginBlock>
    <BlockName> = "e5"
    <Kx> = 37.197476986533054
    <Ky> = 37.197476986533054
    <Kt> = 0
    <qv> = 0
  <EndBlock>
  <BeginBlock>
    <BlockName> = "e6"
    <Kx> = 0.015664246064106369
    <Ky> = 0.015664246064106369
    <Kt> = 0
    <qv> = 0
  <EndBlock>
  <BeginBlock>
    <BlockName> = "e7"
    <Kx> = 142.03015659052124
    <Ky> = 142.03015659052124
    <Kt> = 0
    <qv> = 0
  <EndBlock>
[ConductorProps]  = 1
  <BeginConductor>
    <ConductorName> = "LED"
    <Tc> = 0
    <qc> = 0.5
    <ConductorType> = 0
  <EndConductor>
[NumPoints] = 8
0	0	0	0	0
4	0	0	0	0
0	0.050000000000000003	0	0	0
4	0.050000000000000003	0	0	0
0	-1.5	0	0	0
4	-1.5	0	0	0
0	-1.55	0	0	0
4	-1.55	0	0	0
[NumSegments] = 10
2	3	-1	4	0	0	0
3	1	-1	4	0	0	0
1	0	-1	0	0	0	0
0	2	-1	4	0	0	0
4	5	-1	0	0	0	0
5	7	-1	4	0	0	0
7	6	-1	4	0	0	0
6	4	-1	4	0	0	0
0	4	-1	4	0	0	0
1	5	-1	4	0	0	0
[NumArcSegments] = 0
[NumHoles] = 0
[NumBlockLabels] = 3
2.0600000000000001	-0.79000000000000004	2	-1	0	0
2.0800000000000001	-1.53	1	-1	0	0
2.02	0.01	1	-1	0	0
[Solution]
3036
0	0.050000000000000003	293	-1
0.0038399999999999988	0.050000000000000003	293	-1
0	0.046160000000000007	293	-1
0.011637499999999999	0.050000000000000003	292.99999999999994	-1
0.0065890715847697467	0.043410928415230254	292.99999998433321	-2
0	0.035580000000000001	292.99999999999994	-1
0.019434999999999997	0.050000000000000003	292.99999999999994	-1
0.011637499999999999	0.038362500000000001	292.99999979496187	-2
0	0.025000000000000001	293	-1
0.035029999999999999	0.050000000000000003	293	-1
0.027232499999999996	0.036344385606874335	292.99999967202365	-2
0.0272325	0.013655614393125671	293.00000020672218	-2
0.011637499999999999	0.011637499999999999	292.9999992347598	-2
0	0.014420000000000001	293	-1
0.066220000000000001	0.050000000000000003	293	-1
0.045204324688272311	0.035136318567193028	292.9999992534141	-2
0.050625000000000003	0.017958944269495934	293.00000007971448	-2
0.035029999999999999	0	293.0000022320815	-2
0.019434999999999997	0	293.00000198633637	-2
0.0065890715847697441	0.0065890715847697441	292.99999895738245	-2
0.011637499999999999	0	293.00000041400631	-2
0	0.0038399999999999988	293.00000000000006	-1
0.097409999999999997	0.050000000000000003	293	-1
0.076871475126641109	0.025000000000000001	293.0000005795934	-2
0.066220000000000001	0	293.00000023223322	-2
0.050624999999999996	-0.039708385051213817	292.99999415608158	-2
0.015498749999999997	-0.01549875	293.00001167342327	-2
0.0085736334921292442	-0.0085736334921292495	293.00000711784077	-2
0.0038399999999999988	0	292.99999963884369	-2
0	0	293	-1
0.12859999999999999	0.050000000000000003	293	-1
0.097409999999999997	0	293.00000097556301	-2
0.081814999999999999	-0.02904132106355909	292.99998390982404	-2
0.020904608637793365	-0.038816249999999997	292.99999667305042	-2
0.02670786474550509	-0.073792499999999997	292.99998969922484	-2
0.083624073771015023	-0.088297630758629092	292.99997118902229	-2
0	-0.015498749999999997	293	-1
0	-0.027157499999999998	292.99999999999994	-1
0	-0.0038399999999999988	293.00000000000006	-1
0.15978999999999999	0.050000000000000003	293.00000000000011	-1
0.12859999999999999	0	293.00000021230994	-2
0.11300499999999999	-0.04765986542531174	292.99997439606665	-2
0	-0.050474999999999999	293	-1
0	-0.097110000000000002	293	-1
0.037465435182338608	-0.11306856557196485	292.99998481784979	-2
0.14424857643798039	-0.10118885736891951	292.99994868483435	-2
0.11286112328802836	-0.1519446379319162	292.99994910666504	-2
0.064247724466475184	-0.14374500000000001	292.99996782363002	-2
0.19097999999999998	0.050000000000000003	293	-1
0.19097999999999998	0	292.99999854487658	-2
0.16864142683982369	-0.051068785754943113	292.99996366216391	-2
0	-0.14374500000000001	293	-1
0.18976358186602985	-0.11683894450568129	292.99992523538805	-2
0.16136702753490997	-0.16075791543749046	292.999922234162	-2
0.090266390292314147	-0.19576215324315094	292.99994500074297	-2
0.14384008777879553	-0.21840313689018145	292.99990916615485	-2
0	-0.19037999999999999	293	-1
0.040612404277444565	-0.21369749999999998	292.99997244993591	-2
0.25335999999999997	0.050000000000000003	293	-1
0.22216999999999998	-0.034640115571620209	292.99997009159165	-2
0.25335999999999997	0	292.99999905940609	-2
0.22216999999999998	-0.081252921825000879	292.99992925952512	-2
0.22515447177959583	-0.14945835372211963	292.99989510339446	-2
0.20121489916503599	-0.2000103069845475	292.99988475259573	-2
0.095031160007013199	-0.25372811025624625	292.99993314485744	-2
0.1816015155864458	-0.23751233396155136	292.99987438618962	-2
0.1512594433482311	-0.28003696614496681	292.99989080129342	-2
0	-0.23701499999999998	292.99999999999994	-1
0.044884401754573866	-0.26033249999999997	292.99996692033193	-2
0.28454999999999997	0.050000000000000003	293	-1
0.28454999999999997	-0.054436595047663169	292.99994496576346	-2
0.31574000000000002	0	293.00000069670614	-2
0.26585756224804369	-0.096916522794894266	292.99990483221433	-2
0.28877849473826345	-0.13727222058714567	292.99986887875178	-2
0.25683082778907601	-0.20596611078421728	292.99984713222841	-2
0.29375249208992449	-0.18136143418474571	292.99983459827314	-2
0.21195476044843184	-0.2670041526428934	292.99984639662813	-2
0.075552178584899501	-0.2995082508764238	292.99994190522557	-2
0.14876952025272477	-0.32531599687996754	292.99988980660021	-2
0.19382743894187004	-0.33043207982740375	292.99985536033154	-2
0.10649325994876602	-0.32849124348067299	292.9999134117474	-2
0	-0.28364999999999996	293	-1
0.31574000000000002	0.050000000000000003	292.99999999999994	-1
0.31399945864947032	-0.096260322715187779	292.99988708302101	-2
0.33133500000000005	-0.030568468429295632	292.99996755223754	-2
0.34692999999999996	-0.061136936858591291	292.99991680842618	-2
0.34693000000000002	0	293.00000074731196	-2
0.35440851643000942	-0.12712442961895609	292.9998405622876	-2
0.25763689087303426	-0.26048672692240415	292.99981420252902	-2
0.29589520208478365	-0.23468681410515974	292.99979632210329	-2
0.33252925603139616	-0.20292441133393629	292.99979499688953	-2
0.36561885376571568	-0.17141789045565597	292.99979627149787	-2
0.24803406599242084	-0.31161970549014689	292.9998179843904	-2
0.069315813450177538	-0.34886774583284236	292.999946270929	-2
0	-0.33028499999999994	293	-1
0.17987087820735417	-0.36680399222689586	292.9998665420606	-2
0.14104455739104252	-0.37000061716601562	292.9998905086174	-2
0.22448451285245838	-0.36058784266351557	292.99983223583439	-2
0.097674439096381099	-0.38491002657924966	292.99992796652793	-2
0.37812000000000001	0.050000000000000003	293	-1
0.36580841114320051	-0.032243553882027709	292.99996041852353	-2
0.3828864818098317	-0.064016151569289831	292.99990248029155	-2
0.37812000000000001	0	293.00000078929151	-2
0.40931000000000001	-0.089759947679456775	292.99985170560086	-2
0.42551400795307132	-0.12860898003540738	292.99980281559448	-2
0.29784189110367348	-0.28313384229294924	292.99977838945824	-2
0.33760438174112556	-0.25727348883197526	292.99975101785191	-2
0.38481089585254458	-0.25265195572397176	292.99971839487699	-2
0.40931000000000001	-0.1847844934948345	292.99975472408147	-2
0.29919189700753107	-0.33350609708332918	292.99978367631093	-2
0.26608177291174168	-0.37149170292249972	292.99980521001203	-2
0.044621205146868494	-0.38751271925359265	292.99996711745581	-2
0	-0.37691999999999998	293	-1
0.16335009204672138	-0.40353318573315639	292.99988618073161	-2
0.20323845250189318	-0.39797542258743202	292.99985320742093	-2
0.12386364310727166	-0.41766835962876098	292.99991615473488	-2
0.072979830793072048	-0.42355499999999996	292.9999509381492	-2
0.4405	0.050000000000000003	293	-1
0.4405	0	293.00000139097028	-2
0.40931000000000001	-0.039460986166774077	292.99994303154637	-2
0.43733748980451331	-0.059400171826329236	292.99989858533439	-2
0.45268404724656586	-0.096459234258389856	292.99982472385722	-2
0.46728328780696249	-0.13381901355009948	292.9997718492703	-2
0.47260140430298725	-0.18603405106204804	292.99971913286117	-2
0.34434543054839251	-0.31113770470967594	292.99974007806748	-2
0.40965099856555831	-0.28495803504967987	292.99968063892078	-2
0.44013871410212602	-0.22679057578936554	292.99969378352233	-2
0.33990301569055648	-0.3703709434718111	292.99975726793087	-2
0.27629308233347077	-0.41564153607604465	292.99981638006147	-2
0	-0.42355500000000001	293	-1
0.036489915396536038	-0.44518184834271002	292.99997761422514	-2
0.16337668128454913	-0.44710568678647461	292.99990908919887	-2
0.25263474596295821	-0.45429074988139684	292.99985852586497	-2
0.2024219365475724	-0.4664455832824318	292.99989647089677	-2
0.12161855538004585	-0.45954845480539369	292.99993346607107	-2
0.063861343616872748	-0.4775861599703915	292.99996929582107	-2
0.50287999999999999	0.050000000000000003	292.99999999999994	-1
0.47169	0	293.00000168711097	-2
0.45609500000000003	-0.030568468429295659	292.99994863810315	-2
0.47169	-0.061136936858591319	292.99988538377022	-2
0.49386826396356176	-0.095844886061364057	292.99980618025086	-2
0.52219100178543465	-0.16884206668070534	292.99969673052897	-2
0.50074432980992178	-0.23033606286005356	292.99965323084359	-2
0.39714583092998629	-0.32374378303264728	292.99969920326771	-2
0.38143649282368441	-0.36290913725162033	292.99971583131884	-2
0.44980295096981726	-0.27799138719593108	292.99964691116588	-2
0.43800400873987838	-0.31758994061300777	292.99965438408395	-2
0.49297098942730755	-0.27308138794069592	292.99960891197094	-2
0.33914131195001901	-0.41838308100392502	292.99977569246249	-2
0.30421307371013251	-0.45133400992024997	292.99982292402115	-2
0	-0.47019	293.00000000000006	-1
0.15918639612886948	-0.49619701657136145	292.99993217138183	-2
0.23208500535084145	-0.49309580036011824	292.99989798951543	-2
0.27079864444471086	-0.50265539602232667	292.99988859144588	-2
0.20642278887952509	-0.52361763462502753	292.99992953184909	-2
0.10210825838472487	-0.51682499999999998	292.9999649532802	-2
0	-0.51682499999999998	293	-1
0.046169042907909026	-0.5294465065923738	292.99998714380513	-2
0.56525999999999998	0.050000000000000003	293	-1
0.50287999999999999	0	293.00000201607469	-2
0.49056841114320043	-0.032243553882027702	292.99993931069872	-2
0.53407000000000004	-0.047763060288043571	292.99990245643727	-2
0.53406999999999993	-0.10480800772494885	292.99977712483769	-2
0.55064216269185884	-0.2067306930756618	292.99963204967361	-2
0.57207907867027941	-0.14497796527682372	292.99969282626938	-2
0.56347352700937714	-0.25234179541676893	292.99957817238612	-2
0.40979613220048017	-0.39415716325733519	292.99971619705281	-2
0.46510438187979464	-0.34878016738595408	292.99964314201668	-2
0.52265185274599035	-0.30480888373868542	292.99958508721215	-2
0.34657348532144006	-0.46374964283194359	292.99980862133992	-2
0.38275788370134994	-0.43846641269097264	292.99976000920253	-2
0.32800206515041752	-0.50379530133956041	292.99986193516781	-2
0.15244073245643905	-0.54824464629319769	292.99996311580446	-2
0.25038068092885418	-0.56039200070633499	292.99993116086279	-2
0.3025362909622975	-0.55503029982268726	292.99991745295546	-2
0.20206982334053428	-0.58076395528628133	292.99997095017557	-2
0.099441414563421773	-0.57712182477946672	292.99998630286359	-2
0	-0.56345999999999996	293	-1
0.047455686494027517	-0.58677749999999995	292.99999946165315	-2
0.62763999999999998	0.050000000000000003	293	-1
0.56525999999999998	0	293.00000420944502	-2
0.59644999999999992	0	293.00000335436181	-2
0.5808549999999999	-0.033163417292883503	292.99992404328816	-2
0.59644999999999992	-0.066326834585766992	292.99984193872001	-2
0.6114887755246472	-0.10550589309146147	292.99974586992766	-2
0.59644999999999992	-0.19462042436804414	292.99960834243655	-2
0.63725986074055307	-0.13862710323644067	292.99965693648977	-2
0.57193429723669353	-0.29679223855290709	292.99954022231157	-2
0.62078640195127133	-0.24680440527894981	292.99953895609229	-2
0.45764636297130568	-0.3951860868605338	292.99967194453183	-2
0.42494312593226929	-0.46871177275151221	292.99975457467121	-2
0.46310267741278149	-0.44186970326967995	292.99970806567171	-2
0.50865322416664871	-0.34613146459808253	292.99959551400059	-2
0.55590214080289491	-0.3391053155849631	292.9995515125803	-2
0.38361863007156199	-0.49036665915434885	292.99982095607231	-2
0.36768997177971235	-0.54628207442356203	292.99987735545233	-2
0.1496288452698869	-0.61069325972132238	292.99998983181217	-2
0.28510103859716907	-0.59157137839319018	292.99994513335503	-2
0.25063865379167988	-0.61282184854445454	292.99997303101389	-2
0.35144162726097888	-0.60210543082666279	292.99992892247104	-2
0.20638282726538124	-0.62705028912180105	292.99999831746925	-2
0.095448743394013505	-0.63734538919893569	292.99999937913884	-2
0	-0.61009500000000005	292.99999999999994	-1
0.040913533090055978	-0.63341250000000004	293.00000365279737	-2
0.69001999999999997	0.050000000000000003	293	-1
0.62763999999999998	0	293.00000238766631	-2
0.61797959717123951	-0.03595414425772317	292.99990493634016	-2
0.63788768103395166	-0.072882876943591704	292.99980136153977	-2
0.64259697221471734	-0.19851645025670264	292.99956569166284	-2
0.70561499999999988	-0.12730139434772925	292.99967035360629	-2
0.67719872104112133	-0.16773592003928361	292.99958034527742	-2
0.67859715012227628	-0.083022020271104863	292.99975894165993	-2
0.61656741673080828	-0.30422938666643595	292.99950100191165	-2
0.65923929243103474	-0.24485514594724159	292.99950295548371	-2
0.67561735280784441	-0.27970028242974815	292.99945143339164	-2
0.5006482781795647	-0.41415887518334654	292.99964957636843	-2
0.46382819565648714	-0.49449159850352398	292.99974999088187	-2
0.42830878591105925	-0.53332408189127556	292.99982475278944	-2
0.50258124465087017	-0.46078317969065047	292.99968462966257	-2
0.53407000000000004	-0.38159277869134395	292.99959057951401	-2
0.57213283498710976	-0.39437507911441261	292.99956775581546	-2
0.6279828115665147	-0.34083928253307338	292.99949445850211	-2
0.60531988488704014	-0.37177449659313555	292.9995108717921	-2
0.40097495490641377	-0.58624659692354708	292.99990571591547	-2
0.13914142616871433	-0.65777018422084987	292.99999980495812	-2
0.30747691720575132	-0.62531391096893763	292.99997208137631	-2
0.2770877928506581	-0.66465892846398111	292.99997049241023	-2
0.42031731555944396	-0.62630689596685662	292.99990720901565	-2
0.33361382353772467	-0.66760328798194468	292.99995931489968	-2
0.3894541231744571	-0.65834465230026062	292.99994878411763	-2
0.20168599757379607	-0.67329925120352951	293.00000057890355	-2
0.097075137848661092	-0.68091763331803268	293.00000223305921	-2
0	-0.65673000000000004	293	-1
0.058874072478208861	-0.70193819993881457	293.00000284691072	-2
0.75239999999999996	0.050000000000000003	293	-1
0.69001999999999997	0	293.00000242242663	-2
0.72120999999999991	0	293.00000178360244	-2
0.65882999999999992	-0.035064883610580251	292.99989845824416	-2
0.68527711139142766	-0.21649220565578489	292.99950144218457	-2
0.74115545446940601	-0.10714329986252756	292.99968305721802	-2
0.74273647132803799	-0.18268027860541483	292.99954998680477	-2
0.73680499999999993	-0.066516384854421517	292.99980412533273	-2
0.70561499999999999	-0.038742646194480562	292.99988002093045	-2
0.66633085113863055	-0.34068573906515121	292.99945667301421	-2
0.7260280610312122	-0.3251387726304415	292.9994365476	-2
0.7170082947438533	-0.28446279213611619	292.99942388301952	-2
0.54146988189378908	-0.4226200433366753	292.99960411403657	-2
0.48335096013365547	-0.54336338895458702	292.99978390335417	-2
0.51228770686182368	-0.50346879146846413	292.9997227451276	-2
0.4528303087229022	-0.59025601595420585	292.99987017922314	-2
0.54585596370190281	-0.46738435780921994	292.99964774840873	-2
0.59156081824140161	-0.42951366300779792	292.99956652015419	-2
0.6478897993449354	-0.37990628475813126	292.99948512308754	-2
0.65057596165366949	-0.42316259213363455	292.99951006783135	-2
0.13301215386824652	-0.70561007135287146	293.00000036072618	-2
0.17701223865291865	-0.70999287534454614	293.0000009980526	-2
0.30312007286188364	-0.70895692928165066	292.99997712756027	-2
0.24452360661316233	-0.71359378362611481	292.99999948204754	-2
0.45422959781839861	-0.65509772066953353	292.99990386876567	-2
0.3621810105010026	-0.71646817544944363	292.99996189029997	-2
0.42632295133433862	-0.71364363224648508	292.99992621481965	-2
0.094111047116815588	-0.7407650449359201	293.00000001753267	-2
0	-0.70336500000000002	293	-1
0.047297401777089701	-0.7478474410600866	292.99999828229107	-2
0.81477999999999995	0.050000000000000003	292.99999999999994	-1
0.75239999999999996	0	293.00000118624041	-2
0.73680499999999993	-0.028787459405244183	292.99990917082812	-2
0.72606622370231122	-0.22007981715136549	292.99947682608428	-2
0.77997646456339376	-0.08048786311319639	292.99975863819964	-2
0.77750824664231244	-0.12579664214748335	292.99963503104419	-2
0.78365879879780831	-0.17667810118508737	292.99953027308595	-2
0.7960589094819841	-0.21613567681193493	292.99946790276834	-2
0.7835899999999999	-0.035256016821759398	292.99988401773317	-2
0.70192222649617175	-0.35496333391791668	292.99942625021436	-2
0.76938031128033979	-0.30007967922486312	292.99939764902371	-2
0.77300896689623766	-0.37030018505861739	292.99942590842863	-2
0.74683257897087274	-0.25536977504611208	292.99942807822441	-2
0.5057103065600933	-0.57596617988973198	292.99979966584789	-2
0.53834642342045802	-0.55365550473959702	292.99974888538395	-2
0.58036834574234464	-0.52749917585194528	292.99967515896054	-2
0.49390920366308516	-0.61369702032289031	292.9998466085201	-2
0.59503824344603462	-0.48022561455317125	292.99960834416152	-2
0.64301375250865456	-0.47136062614132734	292.99955216650841	-2
0.71158692790526001	-0.39207383460565026	292.99943774981313	-2
0.68886963504539078	-0.42290235629647582	292.99947248992407	-2
0.15228768556413086	-0.74676203812204844	292.9999999840071	-2
0.19767071656656737	-0.74908819120436576	292.99999921131814	-2
0.28662314125346472	-0.75761742379755392	292.99998900019472	-2
0.34033907351541359	-0.76630616729323209	292.99997938112136	-2
0.24114321251538115	-0.763820690282357	293.00000046332622	-2
0.45939011218004461	-0.69348152800326923	292.99991420317315	-2
0.49025304678553111	-0.6697933514676897	292.99988326235984	-2
0.39445768143162263	-0.77196937482215111	292.99995718346111	-2
0.42694341761657145	-0.75185000671562896	292.99994010126977	-2
0.46028873835913925	-0.73220025790108922	292.99992242544994	-2
0.12502259951078773	-0.78311648177938264	293.0000001398725	-2
0.093526176781545831	-0.81540308645621928	292.99999559586001	-2
0.052863414968657048	-0.79663499999999998	292.99998724380998	-2
0	-0.75	293	-1
0	-0.79663499999999998	293	-1
0.87715999999999994	0.050000000000000003	293	-1
0.81477999999999995	0	293.00000100140585	-2
0.84596999999999989	0	293.0000005396779	-2
0.83037499999999986	-0.077052313437632469	292.99976377261294	-2
0.81956179780677108	-0.15614428318914161	292.99955818981573	-2
0.79839161732202912	-0.26308846478303372	292.99942074377071	-2
0.85499267044906191	-0.19401424154851729	292.9994906273634	-2
0.84500099638094639	-0.25695889645662412	292.99941221742154	-2
0.83037499999999986	-0.03006307958584083	292.99989642369121	-2
0.81736604021391235	-0.314388612891848	292.99937858615453	-2
0.72992548631697785	-0.42627221709895668	292.99944863853261	-2
0.81857451837234418	-0.40673335684152256	292.99942214661263	-2
0.83902571646699342	-0.36028544091201564	292.99937029601062	-2
0.76767797953169192	-0.4352489284038526	292.99942223849325	-2
0.54004758272819897	-0.60329479591831525	292.99979229379034	-2
0.58018502702472585	-0.57403836522249918	292.99972594812448	-2
0.62896143942439053	-0.51808075013882415	292.99961489112877	-2
0.62121282121946519	-0.56056373919351665	292.99966855097506	-2
0.52390334261152338	-0.65026624131624833	292.99984133242396	-2
0.70625594054071428	-0.45702257795088552	292.99947843334593	-2
0.68489107061904364	-0.50942970168555379	292.99955223881568	-2
0.17327773756130621	-0.79157439068898139	292.99999957100641	-2
0.22472736762127454	-0.8171444543758658	292.99999566138837	-2
0.26999662643266081	-0.7995192188013418	292.999991654008	-2
0.30599443968329521	-0.8266551518200963	292.99998897899513	-2
0.35020007626313754	-0.82041276599012969	292.99997433489546	-2
0.4946108039352104	-0.71197493235773612	292.99989399861323	-2
0.55649814288346011	-0.68760565418745234	292.99983762448102	-2
0.42757287083923773	-0.79060976888909174	292.99995449141721	-2
0.3907509364575717	-0.84176222414584401	292.99998096296031	-2
0.46006532245020615	-0.7709039157286236	292.99993366967294	-2
0.52242629036303601	-0.76787114622479336	292.99991465015142	-2
0.1363433782465189	-0.82853276757145422	292.9999926167427	-2
0.10079722043184865	-0.85959395872318456	292.9999994445227	-2
0.044144951176311731	-0.86658749999999996	292.99999547613959	-2
0	-0.84326999999999996	293	-1
0.93953999999999993	0.050000000000000003	293.00000000000006	-1
0.87715999999999994	0	293.00000001465435	-2
0.93953999999999993	0	292.99999897614339	-2
0.86156499999999991	-0.043260680852154322	292.99984885138969	-2
0.86807541474484096	-0.092084279556962481	292.999721408141	-2
0.86577230099970637	-0.13260559424963611	292.99960027610967	-2
0.91257023950243554	-0.17380238234994261	292.99952843654592	-2
0.90748664344350949	-0.23461235489942406	292.99943307661334	-2
0.88422350088218782	-0.268098498007036	292.99938180649463	-2
0.86282895255307079	-0.30748127086652144	292.99936585402065	-2
0.86410590479528215	-0.44450969371350413	292.99943262020128	-2
0.81811741683269812	-0.46559708516646603	292.99943009548679	-2
0.87578001880105705	-0.39528232159640486	292.9993773974615	-2
0.88723246711156545	-0.3464563430204789	292.99935490813692	-2
0.77645692078908146	-0.48574534914580325	292.99946241082802	-2
0.73183450914249715	-0.49800870312520157	292.99949115331964	-2
0.5736839850112786	-0.64111587478712195	292.99978937509235	-2
0.61198123499841295	-0.60802263969635761	292.99972507831211	-2
0.66437552302559033	-0.56191526274209014	292.99963002969372	-2
0.65041436024785193	-0.59887335367096528	292.99968018363711	-2
0.71891516635424269	-0.54709236576242737	292.99956286715508	-2
0.18176701369195686	-0.83982402034740711	292.99999391450098	-2
0.26499403739542166	-0.84432073130427387	292.99999548674418	-2
0.22197203715861544	-0.86814127314546585	293.00000976612876	-2
0.30062313091320048	-0.87097506527190216	293.00001310814497	-2
0.34469934223495718	-0.86487806439636217	292.99999211133957	-2
0.53336986990643476	-0.72755634067168418	292.99987495437676	-2
0.60038179291104887	-0.69693424716027552	292.99981268802139	-2
0.57468757874393972	-0.73371202230955856	292.99985768191232	-2
0.46131287978272556	-0.80960187111708282	292.9999537203978	-2
0.427582359916518	-0.82861082111702966	292.9999481858751	-2
0.42148668950793505	-0.8659454133496195	293.00000516112431	-2
0.38663431764934286	-0.88065395341089803	293.00001261263549	-2
0.51427135664716217	-0.80844239652213257	292.99994380237877	-2
0.55223522127624514	-0.82491280261986744	292.99996288824241	-2
0.59442530313674624	-0.78693529265531281	292.99991031475344	-2
0.14722675328324136	-0.87405585176113276	293.00000386868231	-2
0.11949845551488224	-0.91400568747930333	293.00003031994061	-2
0.061967950239571218	-0.91322249999999994	293.000014296377	-2
0	-0.88990499999999995	293	-1
1.0019199999999999	0.050000000000000003	293.00000000000006	-1
0.97072999999999987	0	292.99999918983065	-2
0.90834999999999988	-0.035684905692349958	292.99986910892386	-2
0.95513499999999996	-0.030145632165395366	292.99986546066043	-2
0.90834999999999988	-0.087060430447897741	292.99972239212798	-2
0.91746796132304176	-0.13009045523077467	292.99960939083496	-2
0.95351014303152348	-0.20191333844955064	292.99946256345004	-2
0.97072999999999987	-0.15533246168890633	292.99955831899985	-2
0.97849175344223538	-0.24483443693377543	292.99940588069143	-2
0.90834999999999999	-0.30096805264913679	292.99936583364087	-2
0.95511413685632662	-0.28751255672793785	292.99935957335458	-2
0.91366134016364631	-0.42012484586386795	292.99938556526149	-2
0.91006066340899627	-0.46528213372600347	292.9994173315124	-2
0.86920271576890706	-0.49484498571895819	292.99944292531143	-2
0.82073163047707132	-0.52026855940405814	292.99948408343539	-2
0.94247678549052594	-0.3851703664546583	292.99936150663427	-2
0.93922940150572909	-0.33746964885107583	292.99935107565869	-2
0.76707219503500546	-0.53106064892967353	292.9994954922721	-2
0.61509911016349494	-0.65033723430942569	292.99976010427019	-2
0.66429989398079825	-0.63585992561491156	292.99971011370269	-2
0.70335205130487455	-0.60261479659412343	292.99964480660202	-2
0.7536786790156943	-0.58677910050752424	292.99958615011991	-2
0.26644174820570871	-0.89946223607492293	293.00003410314918	-2
0.21403491074856645	-0.91667283753746376	293.00004960212129	-2
0.16671475726672164	-0.91717976158239711	293.00004142693882	-2
0.32800780952908531	-0.90645706839036011	293.00004621473289	-2
0.64284055175379939	-0.68244110450142981	292.99976459004426	-2
0.63805018057412488	-0.75061499063182568	292.99985485742877	-2
0.48956137777421838	-0.84163797211133295	292.99997110376461	-2
0.449850895408622	-0.89097541132259706	293.00003902088889	-2
0.36268414112405367	-0.93897628045272474	293.00010486106839	-2
0.41020697089234209	-0.94021231316083809	293.00011570930053	-2
0.55865971776475343	-0.87147752636785758	293.00003218680132	-2
0.60226897198452012	-0.85393384946553019	292.99999723437173	-2
0.64571052453493261	-0.81574446766946407	292.99994775374495	-2
0.1494099134447153	-0.96315522567013634	293.00007521754429	-2
0.10629403414169381	-0.95565237348431831	293.00005279548856	-2
0	-0.93653999999999993	292.99999999999994	-1
0.041209345975516648	-0.95205591591054362	293.00002082792292	-2
1.0642999999999998	0.050000000000000003	293	-1
1.0019199999999999	0	292.99999932646574	-2
0.98919686700306686	-0.031631312268804918	292.99985260699981	-2
0.93491523933314857	-0.059712394757567858	292.999797570993	-2
0.97072999999999987	-0.060291264330790725	292.9997936042937	-2
0.9521275092409508	-0.10300843186416384	292.99966675944569	-2
1.0010747977912833	-0.20295965608726738	292.99945704095859	-2
0.99932002925426044	-0.10022139440439361	292.99968240160462	-2
1.0225655952153945	-0.14348163855073298	292.9995787897671	-2
1.02591986425147	-0.24338548722027181	292.99939326911385	-2
1.0197378236029038	-0.29134197887514873	292.99937748947406	-2
0.98551936726015066	-0.32550540908852033	292.99934966041172	-2
0.95834866511669781	-0.45073555356451445	292.99939593865548	-2
0.94800190612841662	-0.49168348171106496	292.99941255762621	-2