[Format]      =  1
[Precision]   =  1e-008
[MinAngle]    =  20
[Depth]       =  100
[LengthUnits] =  millimeters
[ProblemType] =  planar
[Coordinates] =  cartesian
[PrevSoln] = ""
[dT] = 0
[Comment]     =  "Add comments here."
[PointProps]   = 0
[BdryProps]   = 0
[BlockProps]  = 11
  <BeginBlock>
    <BlockName> = "Constantan"
    <Kx> = 22
    <Ky> = 22
    <Kt> = 3
    <qv> = 0
    <TKPoints> = 2
      273	22
      473	26
  <EndBlock>
  <BeginBlock>
    <BlockName> = "Plywood"
    <Kx> = 0.12
    <Ky> = 0.12
    <Kt> = 3
    <qv> = 0
  <EndBlock>
  <BeginBlock>
    <BlockName> = "Acryl"
    <Kx> = 19
    <Ky> = 19
    <Kt> = 1.75
    <qv> = 0
  <EndBlock>
  <BeginBlock>
    <BlockName> = "Air"
    <Kx> = 0.018100000000000002
    <Ky> = 0.018100000000000002
    <Kt> = 3
    <qv> = 0
    <TKPoints> = 18
      200	0.018100000000000002
      250	0.0223
      300	0.026100000000000002
      350	0.029700000000000001
      400	0.033099999999999997
      450	0.036299999999999999
      500	0.0395
      550	0.042599999999999999
      600	0.045600000000000002
      700	0.051299999999999998
      800	0.056899999999999999
      900	0.0625
      1000	0.067199999999999996
      1200	0.075899999999999995
      1400	0.083500000000000005
      1600	0.090399999999999994
      1800	0.097000000000000003
      2000	0.1032
  <EndBlock>
  <BeginBlock>
    <BlockName> = "e1"
    <Kx> = 2.6498996896116669
    <Ky> = 2.6498996896116669
    <Kt> = 0
    <qv> = 0
  <EndBlock>
  <BeginBlock>
    <BlockName> = "e2"
    <Kx> = 0.12953316809300527
    <Ky> = 0.12953316809300527
    <Kt> = 0
    <qv> = 0
  <EndBlock>
  <BeginBlock>
    <BlockName> = "e3"
    <Kx> = 14.398967120915913
    <Ky> = 14.398967120915913
    <Kt> = 0
    <qv> = 0
  <EndBlock>
  <BeginBlock>
    <BlockName> = "e4"
    <Kx> = 0.042882574356338271
    <Ky> = 0.042882574356338271
    <Kt> = 0
    <qv> = 0
  <EndBlock>
  <BeginBlock>
    <BlockName> = "e5"
    <Kx> = 37.197476986533054
    <Ky> = 37.197476986533054
    <Kt> = 0
    <qv> = 0
  <EndBlock>
  <BeginBlock>
    <BlockName> = "e6"
    <Kx> = 0.015664246064106369
    <Ky> = 0.015664246064106369
    <Kt> = 0
    <qv> = 0
  <EndBlock>
  <BeginBlock>
    <BlockName> = "e7"
    <Kx> = 142.03015659052124
    <Ky> = 142.03015659052124
    <Kt> = 0
    <qv> = 0
  <EndBlock>
[ConductorProps]  = 2
  <BeginConductor>
    <ConductorName> = "Draht"
    <Tc> = 293
    <qc> = 0
    <ConductorType> = 1
  <EndConductor>
  <BeginConductor>
    <ConductorName> = "New Conductor"
    <Tc> = 0
    <qc> = 10
    <ConductorType> = 0
  <EndConductor>
[NumPoints] = 31
0	22.949999999999999	0	0	0
0	28	0	0	0
25	23	0	0	0
-25	23	0	0	0
-25	28	0	0	0
25	28	0	0	0
0	22.550000000000001	0	0	0
3	22.200000000000003	0	0	0
3	22.600000000000001	0	0	0
-3	22.200000000000003	0	0	0
-3	22.600000000000001	0	0	0
0	56.979599999999998	0	0	0
0	-28.979599999999998	0	0	0
0	-29.593594285714282	0	0	0
0	57.593594285714282	0	0	0
0	-30.207588571428566	0	0	0
0	58.207588571428566	0	0	0
0	-30.821582857142857	0	0	0
0	58.821582857142857	0	0	0
0	-31.435577142857142	0	0	0
0	59.435577142857142	0	0	0
0	-32.049571428571426	0	0	0
0	60.049571428571426	0	0	0
0	-32.66356571428571	0	0	0
0	60.66356571428571	0	0	0
0	-33.277560000000001	0	0	0
0	61.277560000000001	0	0	0
-3.0071283708559031	22.599872925452502	0	0	0
3.0071283708559031	22.599872925452502	0	0	0
0.29999999999999999	23	0	0	0
-0.29999999999999999	23	0	0	0
[NumSegments] = 7
3	4	-1	0	0	0	0
4	1	-1	0	0	0	0
5	1	-1	0	0	0	0
2	29	-1	0	0	0	0
5	2	-1	0	0	0	0
30	3	-1	0	0	0	0
30	29	-1	0	0	0	0
[NumArcSegments] = 24
6	0	180	1	0	0	0	1
0	6	180	1	0	0	0	1
9	10	180	1	0	0	0	1
11	12	180	1	0	0	0	0
12	11	180	1	0	0	0	0
13	14	180	1	0	0	0	0
14	13	180	1	0	0	0	0
15	16	180	1	0	0	0	0
16	15	180	1	0	0	0	0
17	18	180	1	0	0	0	0
18	17	180	1	0	0	0	0
19	20	180	1	0	0	0	0
20	19	180	1	0	0	0	0
21	22	180	1	0	0	0	0
22	21	180	1	0	0	0	0
23	24	180	1	0	0	0	0
24	23	180	1	0	0	0	0
25	26	180	1	0	0	0	0
26	25	180	1	0	0	0	0
8	7	180	1	0	0	0	0
10	27	2.0425604383023472	1	0	0	0	0
28	8	2.0425604383023481	1	0	0	0	0
27	9	180	1	0	0	0	0
7	28	177.95743956169767	1	0	0	0	0
[NumHoles] = 0
[NumBlockLabels] = 12
-2.8999999999999999	22.32	1	-1	0	0
0.080000000000000002	22.780000000000001	1	-1	0	0
3.0299999999999998	22.370000000000001	1	-1	0	0
-3.73	22.649999999999999	4	-1	0	0
-13	25.600000000000001	3	-1	0	0
42.865334955051516	20.024329954380537	5	-1	0	0
42.199956969323793	26.100642940173845	6	-1	0	0
40.666097578127925	32.105713161338542	7	-1	0	0
38.271206351242959	37.914503909489326	8	-1	0	0
35.040844845528483	43.402759986023241	9	-1	0	0
31.018598836915988	48.449644060745143	10	-1	0	0
26.265605421740933	52.94036141262972	11	-1	0	0
[Solution]
8750
1.6499630493222919	-33.248759787844925	293.00011177624083	-2
0.82510719248305753	-33.270359398617998	293.00008808649619	-2
2.4743163114331517	-33.212767747131458	293.0001352388432	-2
1.6285349577726516	-32.635139530859924	293.00011201949457	-2
0	-33.277560000000001	293.00006377551875	-2
0.81439151465860204	-32.656458627207371	293.00008836651625	-2
3.2979158728263087	-33.162394240001866	293.00015829594588	-2
2.4421823333625912	-32.599614919246626	293.00013530697896	-2
3.2550857965558371	-32.549895613508326	293.0001582774056	-2
2.4100483552920307	-31.986462091361808	293.00019694761875	-2
1.6071068662230115	-32.021519273874922	293.00015543669838	-2
-0.82510719248308884	-33.270359398618233	293.00003865518073	-2
-0.8143915146585774	-32.656458627207563	293.00003898539529	-2
0	-32.66356571428571	293.00006413501814	-2
0.80367583683414678	-32.042557855796751	293.0001151859181	-2
4.1205108570969742	-33.0976546107144	293.00018129005548	-2
4.0669977290827273	-32.485996758627188	293.00018120338285	-2
3.2122557202853654	-31.937396987014804	293.00023903774166	-2
4.0134846010684813	-31.874338906539997	293.00028189495237	-2
3.1694256440148938	-31.324898360521274	293.00023901784152	-2
2.3779143772214701	-31.373309263476983	293.00019642326669	-2
1.5856787746733711	-31.407899016889928	293.00015485945607	-2
-1.6499630493223272	-33.248759787845152	293.00001283795359	-2
-1.6285349577726302	-32.635139530860116	293.00001320869762	-2
-0.80367583683418564	-32.042557855796979	293.00003947777606	-2
0	-32.049571428571426	293.00007619337094	-2
0.79296015900969152	-31.428657084386121	293.00011459237021	-2
4.9418506938442839	-33.018568579587281	293.00020438606163	-2
4.8776708147034471	-32.407937818813409	293.0002042450372	-2
3.9599714730542352	-31.262681054452788	293.00028207156333	-2
4.813490935562613	-31.79730705803955	293.00032490376083	-2
3.1265955677444226	-30.712399734027741	293.00017645727792	-2
2.3457803991509101	-30.760156435592158	293.00013942745272	-2
1.5642506831237311	-30.794278759904927	293.00010387170067	-2
-2.4743163114331912	-33.212767747131686	292.99998616874012	-2
-2.442182333362573	-32.599614919246825	292.99998650859595	-2
-1.6071068662230541	-32.02151927387515	293.00000330360513	-2
-0.79296015900971362	-31.428657084386398	293.00003873237534	-2
-1.585678774673398	-31.407899016890202	293.00000287326611	-2
0	-31.435577142857142	293.00007582438627	-2
0.78224448118523626	-30.814756312975504	293.00007022334142	-2
5.7616851949974661	-32.925160236991715	293.00022772188925	-2
5.6868581145429511	-32.31574257157623	293.00022754305076	-2
3.9064583450399892	-30.651023202365593	293.00021375662345	-2
4.749311056421778	-31.186676297265691	293.00032522155982	-2
4.6851311772809447	-30.576045536491833	293.00025147240018	-2
5.5372039536339264	-31.096907240745281	293.00036732369352	-2
5.6120310340884396	-31.706324906160752	293.0003679353415	-2
3.8529452170257419	-30.039365350278395	293.00021386829781	-2
3.0837654914739505	-30.099901107534208	293.00017569419731	-2
2.3136464210803491	-30.147003607707333	293.00013833987987	-2
1.5428225915740907	-30.180658502919925	293.00010274544337	-2
-3.2979158728263522	-33.162394240002087	292.99995870837728	-2
-3.2550857965558224	-32.549895613508525	292.99995900977427	-2
-2.4100483552920773	-31.986462091362036	292.99996856785788	-2
-2.3779143772215017	-31.373309263477257	292.99996826157235	-2
-0.78224448118527179	-30.814756312975724	293.00000797264374	-2
-1.5642506831237704	-30.79427875990514	292.99997746092106	-2
0	-30.821582857142857	293.00003842357791	-2
0.77152880336078089	-30.200855541564877	293.00006933318355	-2
6.5797646310255535	-32.817458036013733	293.0002514026441	-2
6.4943131423109337	-32.209439100481077	293.00025120489926	-2
6.4088616535963165	-31.601420164948426	293.00040878526249	-2
4.6209512981401089	-29.965414775717967	293.00025195171918	-2
5.4623768731794158	-30.487489575329811	293.00028833045974	-2
5.3875497927249016	-29.878071909914325	293.0002890740667	-2
6.3234101648816985	-30.993401229415788	293.00040953492828	-2
3.7994320890114954	-29.427707498191189	293.00019542157054	-2
3.0409354152034789	-29.487402481040675	293.00016230698543	-2
2.2815124430097891	-29.533850779822508	293.00012673602987	-2
1.5213945000244506	-29.567038245934924	293.00008936436637	-2
-4.1205108570970213	-33.097654610714613	292.99993052016981	-2
-4.0669977290827166	-32.485996758627387	292.99993076403564	-2
-3.2122557202854156	-31.937396987015017	292.99993461702496	-2
-3.1694256440149298	-31.324898360521541	292.99993438516537	-2
-2.3457803991509527	-30.760156435592371	292.99994643217576	-2
-0.77152880336079543	-30.200855541565133	293.00000790758889	-2
-1.5428225915741098	-30.180658502920181	292.99997822146941	-2
-2.3136464210803727	-30.147003607707589	292.99994759885072	-2
0	-30.207588571428566	293.0000379869528	-2
0.76081312553632563	-29.586954770154257	293.00005073530292	-2
7.3958398070074196	-32.695494783787076	293.0002754939261	-2
7.2997899393839445	-32.08905978659503	293.00027529746012	-2
7.1076902041369978	-30.876189792210951	293.00044860090065	-2
7.203740071760472	-31.48262478940298	293.00044988359133	-2
4.5567714189992738	-29.354784014944102	293.0002269923375	-2
6.2379586761670831	-30.385382293883147	293.00032360985699	-2
6.1525071874524642	-29.777363358350499	293.00032427074387	-2
6.0670556987378461	-29.169344422817844	293.00028035186142	-2
5.3127227122703893	-29.26865424449884	293.00025494332647	-2
7.011640336513528	-30.269754795018919	293.00035711790565	-2
3.7459189609972494	-28.816049646103991	293.00019593152547	-2
4.4925915398584397	-28.74415325417025	293.00022698195534	-2
2.9981053389330077	-28.874903854547142	293.00016270638781	-2
2.2493784649392286	-28.920697951937683	293.00012686535598	-2
1.4999664084748106	-28.95341798894993	293.00008862343003	-2
-4.9418506938443336	-33.018568579587495	292.9999017095339	-2
-4.8776708147034409	-32.407937818813608	292.999901877718	-2
-4.0134846010685354	-31.874338906540213	292.99990124669478	-2
-3.9599714730542748	-31.262681054453054	292.99990106532385	-2
-3.1265955677444683	-30.712399734027947	292.99991337754409	-2
-3.083765491473978	-30.099901107534457	292.99991451913598	-2
-0.76081312553633917	-29.586954770154435	292.99997946006715	-2
-1.5213945000244673	-29.567038245935102	292.99994643616532	-2
-2.2815124430098086	-29.533850779822686	292.99991765233028	-2
0	-29.593594285714282	293.00001162144423	-2
0.75009744771187037	-28.97305399874363	293.0000486182073	-2
8.2096621385389614	-32.559307631499863	293.00030001714572	-2
8.1030431497267656	-31.954641298623237	293.00029984185863	-2
7.889805172102375	-30.74530863287	293.0004868551643	-2
7.9964241609145716	-31.349974965746604	293.00048812031793	-2
5.2378956318158778	-28.659236579083377	293.00025437555428	-2
6.9155904688900529	-29.66331979782688	293.00035732752849	-2
6.8195406012665796	-29.056884800634826	293.00030325723708	-2
5.9816042100232307	-28.56132548728521	293.00027843091965	-2
7.6765671944779896	-29.535975967116762	293.00038857757221	-2
7.7831861832901854	-30.140642299993381	293.00038954276084	-2
4.0069583430738396	-27.613853476394222	293.00019017397375	-2
2.5350273874509028	-27.447331412776787	293.00012775307835	-2
1.0761162081742794	-27.095220014732458	293.00006183549868	-2
-5.7616851949975185	-32.925160236991928	292.99987242561417	-2
-5.6868581145429484	-32.315742571576429	292.99987250321448	-2
-4.8134909355626707	-31.797307058039763	292.99986831645543	-2
-4.7493110564218233	-31.186676297265947	292.99986817615559	-2
-3.9064583450400381	-30.651023202365799	292.99987781070877	-2
-3.8529452170257734	-30.039365350278636	292.99987846211582	-2
-3.0409354152035015	-29.487402481040853	292.99988969358691	-2
-0.7500974477118878	-28.973053998743858	292.9999748641074	-2
-1.4999664084748319	-28.95341798895015	292.99994336361016	-2
-2.2493784649392534	-28.92069795193791	292.99991616398228	-2
0	-28.979599999999998	293.00000943804702	-2
-0.36321348044870799	-27.620142433337925	292.99999898957566	-2
9.0209837274543219	-32.408938063077962	293.00032494859266	-2
8.9038280946302386	-31.806224581739283	293.00032481297126	-2
8.6695168289820739	-30.600797619061929	293.00052289663171	-2
8.7866724618061571	-31.20351110040059	293.00052425880523	-2
5.4012349247030063	-27.026452393107547	293.00023614859316	-2
6.7234907336431098	-28.450449803442794	293.0002990952604	-2
7.5699482056657939	-28.931309634240122	293.00032488599476	-2
6.8945194454599656	-27.200023612070467	293.00029334657773	-2
8.4352055633339109	-29.395370656384586	293.0004201120563	-2
8.5523611961579959	-29.998084137723261	293.00042057606476	-2
3.8890479186214346	-26.389306898568286	293.00017281481217	-2
2.6346294544113613	-26.179373559134014	293.00012349244417	-2
0.21840035231752486	-26.106842707047072	293.00002482436213	-2
1.7158695915092963	-25.29987483561171	293.00008333505133	-2
-6.5797646310256086	-32.817458036013939	292.99984285554763	-2
-6.4943131423109337	-32.209439100481269	292.99984283200166	-2
-5.6120310340885	-31.706324906160965	292.99983572607283	-2
-5.5372039536339761	-31.09690724074553	292.99983563083094	-2
-4.6851311772809963	-30.576045536492032	292.99984014203523	-2
-4.6209512981401444	-29.965414775718216	292.99983992065967	-2
-3.7994320890115212	-29.427707498191367	292.9998605087826	-2
-2.9981053389330361	-28.87490385454737	292.99988948405627	-2
-2.5228495680319378	-27.248225825262455	292.99991146308639	-2
-1.0578166431258458	-26.396387819727277	292.99997593686726	-2
9.8295574373380692	-32.244431882548561	293.000350221041	-2
9.7019008472427686	-31.643854845112859	293.0003501410464	-2
9.4465876670521673	-30.442700770241466	293.00055652386158	-2
9.574244257147468	-31.04327780767715	293.00055796642425	-2
5.0710240592620668	-25.697099225645289	293.00020982389475	-2
7.423609746701354	-26.054213883770021	293.00030105396411	-2
7.4633292168536034	-28.326643301363511	293.00031973494805	-2
8.2008942976857497	-28.189943693707235	293.00034821753292	-2
8.3180499305098277	-28.792657175045896	293.00034471805327	-2
8.3281795786898929	-26.934310412221222	293.00034284808197	-2
9.1912744868615697	-29.241546695370083	293.00045181534773	-2
9.0636178967662691	-28.640969657934377	293.00037927252589	-2
9.3189310769568721	-29.842123732805781	293.0004524271734	-2
3.6104661420548751	-24.558372928253082	293.00014739220347	-2
2.379439844823128	-24.204176142267887	293.00010223233915	-2
-0.073049511546209533	-24.8310593521669	293.00001336037633	-2
1.1320898905493559	-23.87996631748285	293.00005702834267	-2
-7.3958398070074782	-32.695494783787282	292.99981321589291	-2
-7.2997899393839472	-32.089059786595215	292.99981308569483	-2
-6.4088616535963805	-31.601420164948642	292.99980338316487	-2
-6.3234101648817527	-30.993401229416037	292.99980334512992	-2
-5.4623768731794708	-30.487489575330002	292.99980155399351	-2
-5.3875497927249416	-29.878071909914567	292.99980035174985	-2
-4.5567714189993023	-29.354784014944279	292.99982899137245	-2
-3.7459189609972814	-28.816049646104211	292.99986075968411	-2
-3.9882916828424317	-27.419992797731009	292.99985435714763	-2
-2.3663705584738794	-25.561559172594606	292.99992519045946	-2
-3.8524839922355278	-26.009576004241808	292.99986872410642	-2
10.635136968805343	-32.065839200087872	293.00037572808719	-2
10.497018306872803	-31.467581548138668	293.00037571633311	-2
10.220780983007726	-30.271066244240281	293.00058754411884	-2
10.358899644940264	-30.869323896189464	293.00058899964927	-2
5.7554475338912381	-24.510598670704951	293.00022358535887	-2
7.2052776608630351	-24.616975384881432	293.00027816933311	-2
9.6564173331217731	-26.221872897549261	293.00039240148453	-2
9.2697838581441125	-24.611428573115571	293.00035586578787	-2
8.9359613066709738	-28.040392620498693	293.00037220877664	-2
9.6683063352775847	-27.878035636443521	293.00041101701885	-2
9.9445436591426546	-29.074550940341901	293.00048393289831	-2
9.806424997210117	-28.476293288392696	293.00040879684644	-2
10.082662321075194	-29.672808592291098	293.00048511432448	-2
2.677697162588855	-22.958413853515516	293.00010297280869	-2
4.1702986644448163	-23.160113465964592	293.00015646847834	-2
-0.37868988844471585	-23.553443852445987	293.00000053036479	-2
-1.6534704945660823	-23.87070054878922	292.999956925672	-2
0.42728341665356484	-22.516079675029619	293.00002782912213	-2
-8.2096621385390236	-32.559307631500062	292.99978374211395	-2
-8.103043149726771	-31.954641298623415	292.9997835051787	-2
-7.2037400717605387	-31.482624789403197	292.99977118237484	-2
-7.1076902041370564	-30.876189792211193	292.99977121219194	-2
-6.2379586761671417	-30.385382293883339	292.99976392000229	-2
-6.1525071874525077	-29.777363358350733	292.99976195508088	-2
-5.3127227122704213	-29.268654244499018	292.99979540947595	-2
-4.4925915398584753	-28.744153254170463	292.99982903290714	-2
-5.237895631815916	-28.65923657908359	292.99979517970672	-2
-5.3870616937279205	-26.918796015637959	292.99980031701705	-2
-3.3311865188761791	-24.345671685201541	292.99989655113995	-2
-5.2879625565707054	-25.557681597389038	292.99981592415241	-2
-5.0695967619643181	-24.210547796203599	292.99983514473814	-2
11.437476934527032	-31.873214416757023	293.00040133064925	-2
11.288938273039665	-31.277458385370554	293.00040139586008	-2
10.991860950064934	-30.08594632259765	293.00061592901915	-2
11.140399611552299	-30.681702353984093	293.00061705995807	-2
6.2995189717247921	-23.370872445099124	293.00023180166568	-2
7.5515187361482301	-23.205082853496908	293.00027697684811	-2
10.397706304115484	-27.702922197051841	293.00044565798345	-2
11.172635413426153	-26.287221786671104	293.00045810195434	-2
11.591405405707592	-25.131928837987179	293.00045353433478	-2
10.267569066254556	-23.301041792639875	293.0003734646524	-2
8.9235377870356238	-22.856975219782424	293.00032586796067	-2
10.546244965602844	-28.298678228438277	293.00044680298038	-2
10.694783627090208	-28.894434259824742	293.00051601396444	-2
10.843322288577575	-29.490190291211206	293.00051754310869	-2
2.8117882263295599	-21.534522494881099	293.00009632302556	-2
4.0612973056282851	-20.838696313051944	293.00012893299123	-2
5.4775562588652029	-22.412036224742135	293.00019341696634	-2
-1.5235168831027601	-22.49753657352943	292.99995989425429	-2
-2.8839528313753298	-22.724871732999635	292.99991594555661	-2
-0.20057450864400606	-21.44879767085974	293.00000107656911	-2
1.7141496690079983	-20.61766012132118	293.00005460246041	-2
-9.0209837274543876	-32.408938063078153	292.99975467675961	-2
-8.9038280946302457	-31.806224581739457	292.9997543384082	-2
-7.9964241609146409	-31.349974965746824	292.99973898598347	-2
-7.8898051721024398	-30.745308632870234	292.99973908871453	-2
-7.0116403365135893	-30.269754795019111	292.999728942204	-2
-6.9155904688901	-29.663319797827107	292.99972680096693	-2
-6.0670556987378816	-29.169344422818021	292.99976098963475	-2
-6.8195406012666187	-29.056884800635004	292.99972629982847	-2
-5.9816042100232716	-28.561325487285416	292.99976092521803	-2
-6.7234907336431533	-28.450449803443	292.99972662324831	-2
-6.6445603683802519	-25.70632706669085	292.99976316995674	-2
-7.5719566746317319	-26.854622281175892	292.99971125595584	-2
-4.21883924345327	-23.111598023942182	292.99987495859966	-2
-6.6875869173508784	-24.333028106766079	292.99977980699759	-2
-5.5063846266201857	-22.506537138878802	292.99982773067353	-2
-6.8517808784405094	-22.968901404297256	292.99978972411168	-2
12.236332933977137	-31.666616207931028	293.00042686508272	-2
12.07741951925016	-31.073543270165679	293.0004270118057	-2
11.91850610452318	-30.480470332400337	293.00064088692261	-2
11.759592689796204	-29.887397394635009	293.0006427091044	-2
11.600679275069233	-29.294324456869681	293.00054598571182	-2
7.4690852131959549	-21.64236296099725	293.00025490325214	-2
11.123939030888307	-27.515105643573669	293.0004799420941	-2
11.846783298072303	-27.314643186750601	293.00051054909471	-2
12.566018920301341	-27.101595889388911	293.00053641571282	-2
11.890908172410734	-23.579356331235182	293.00043564806219	-2
13.432336900113578	-23.93174925596184	293.00049450499387	-2
13.18134641538145	-25.394891820355458	293.0005235454293	-2
10.017297922234963	-21.958474264136321	293.00034779679737	-2
11.377218736747963	-22.083927810819219	293.00039278634154	-2
8.9426803169916376	-21.115669294631445	293.00030340780279	-2
11.282852445615278	-28.108178581338983	293.00048216794147	-2
11.441765860342255	-28.701251519104332	293.00054812421115	-2
3.4335525626046417	-19.38090632320813	293.0000926155588	-2
5.1254774112563162	-19.955019313783954	293.00015129931609	-2
6.3949919616199562	-20.504288958553051	293.00020114023215	-2
-1.3955325774182463	-21.124187651520867	292.9999609777272	-2
-2.6653169692809846	-21.435816529017227	292.9999251363293	-2
-4.2334171477671152	-21.721897897309709	292.99987531457032	-2
0.056121003155251703	-20.237433206709515	293.00000116470756	-2
1.1146077479701246	-19.118725316532927	293.00002073338982	-2
-9.8295574373381367	-32.244431882548753	292.99972625721699	-2
-9.7019008472427775	-31.643854845113033	292.99972582775399	-2
-8.78667246180623	-31.20351110040081	292.99970664264777	-2
-8.6695168289821396	-30.600797619062163	292.99970681142611	-2
-7.7831861832902494	-30.140642299993573	292.9996976921899	-2
-7.6765671944780403	-29.535975967116983	292.99969603246279	-2
-7.5699482056658356	-28.9313096342403	292.99969119571682	-2
-7.4633292168536496	-28.326643301363717	292.99969156448952	-2
-8.0606094225954763	-24.384121328807971	292.99972699367243	-2
-8.8800341994542489	-26.055245776288135	292.999667199177	-2
-8.2008942976857995	-28.189943693707434	292.99965520646367	-2
-8.9359613066710271	-28.040392620498885	292.99961926290462	-2
-5.7968291954645963	-21.113872878988104	292.99982460104286	-2
-8.6529940178493003	-22.654250015234659	292.99972245052453	-2
-7.4718123799958205	-21.205431523190928	292.99977257952924	-2
13.031461627879535	-31.446107505425655	293.00045215238816	-2
12.862221866478501	-30.85589831704349	293.00045238114109	-2
12.692982105077464	-30.265689128661329	293.00066354134117	-2
12.52374234367643	-29.675479940279196	293.00066493264961	-2
12.354502582275401	-29.085270751897049	293.00057260735582	-2
7.837139934364842	-20.108638907528	293.00024681302682	-2
12.016023059473332	-27.904852375132727	293.00051262948148	-2
13.281426811437495	-26.876028647759213	293.00055802727172	-2
12.74553347630564	-27.688761544951582	293.00053795403846	-2
12.857164440332911	-22.411498917039765	293.00044222970894	-2
14.479796344678519	-23.378147018746105	293.00051262949654	-2
14.560311267182589	-24.943321473471464	293.00055306960917	-2
13.992789051306817	-26.638010171828434	293.00057624567785	-2
10.583219445816074	-20.130399092258752	293.00034094087113	-2
12.353960315537812	-21.178007112038266	293.00040906273711	-2
9.5865673165570104	-18.973023880770413	293.00029267368842	-2
12.185262820874366	-28.495061563514888	293.0005749976342	-2
2.3596321528749087	-18.212184769351708	293.00004429286389	-2
4.8188431998364223	-18.606190267300796	293.00012410478467	-2
3.7015599860839505	-17.708120486668427	293.00007182696072	-2
6.455775791372421	-18.850362240742442	293.00017843856261	-2
-1.7280561146432327	-19.59780644833339	292.99993989167484	-2
-3.5178558298136289	-20.444533294825522	292.99989171870584	-2
-4.779890733103028	-19.70226903574374	292.99984830700066	-2
-0.32833581135284851	-18.580380244018574	292.99997122439709	-2
0.90647531440540474	-17.524664543432735	292.99999472663842	-2
-10.635136968805412	-32.065839200088057	292.99969870385485	-2
-10.497018306872816	-31.467581548138842	292.99969819778823	-2
-9.5742442571475461	-31.043277807677363	292.99967398828727	-2
-9.4465876670522384	-30.4427007702417	292.99967420759276	-2
-8.5523611961580617	-29.998084137723453	292.99966996039655	-2
-8.435205563333966	-29.395370656384806	292.99966918905773	-2
-8.3180499305098721	-28.792657175046067	292.99965390934011	-2
-9.9217183559781859	-24.36443829095796	292.99965917569477	-2
-9.7824492480507086	-26.746833603826783	292.99961533205646	-2
-11.023317100379737	-25.748797344100961	292.99959789195515	-2
-9.063617896766317	-28.640969657934541	292.9996153089898	-2
-9.6683063352776415	-27.878035636443705	292.99958615764376	-2
-9.8064249972101667	-28.47629328839286	292.99958024746354	-2
-6.5165687535744858	-19.598641338172509	292.99979793435949	-2
-9.5669032713151019	-21.070537873888423	292.99970848053465	-2
-10.608871955875333	-22.624358571498512	292.99966267087353	-2
-8.4178477780694969	-19.555141680599089	292.99974856643973	-2
13.822620812331477	-31.211755478327788	293.00047700718324	-2
13.643106256327171	-30.624589822765081	293.0004773145472	-2
13.463591700322862	-30.037424167202374	293.00068331334842	-2
13.284077144318555	-29.450258511639696	293.00068455548364	-2
13.104562588314256	-28.863092856077003	293.00059443533081	-2
8.0968690931332308	-18.635930347678574	293.00023310800469	-2
12.925048032309949	-28.275927200514289	293.00059681264236	-2
13.471161480172311	-27.459971914155751	293.00055933041313	-2
14.358053349677792	-22.199662666611204	293.00048328513753	-2
15.618306860200352	-23.705928243200425	293.00054795563574	-2
14.699888952079919	-26.387612964330067	293.00059123383642	-2
15.402511124277195	-26.124913298679175	293.00060183460744	-2
16.045061196673082	-24.736204350114441	293.00057426803386	-2
14.192686037754052	-27.218553174283102	293.00057817204993	-2
12.900708981927385	-19.963189298529642	293.00039607549655	-2
10.931223440699481	-18.248639483692141	293.00032588260297	-2
12.3675149917302	-18.587225003089696	293.00037315486571	-2
14.470623980349082	-20.533250227300208	293.00043970137637	-2
9.6603873289575617	-17.499836584070302	293.0002710398291	-2
1.697539233909104	-16.043015878312879	293.0000047280277	-2
6.4291708998870094	-16.737001068890141	293.0001526878313	-2
5.3026231375522395	-15.884451699338751	293.00010743746418	-2
3.951285763626696	-16.296565263997774	293.00005705064149	-2
7.8081467997893927	-17.207718555836973	293.00019706993703	-2
-1.8707972653048688	-18.042159816170269	292.99992010256727	-2
-3.1794681897379995	-19.020039654097367	292.99989135441945	-2
-5.5688793946232966	-18.320636907089835	292.99981856415616	-2
-4.1854003857587543	-18.025420464044071	292.99985604112385	-2
-0.275543033702983	-16.435085962983631	292.9999522708967	-2
0.57720987767860854	-15.565765251575325	292.99995693627608	-2
-11.437476934527105	-31.873214416757207	292.99967220952703	-2
-11.28893827303968	-31.277458385370736	292.99967164447753	-2
-10.358899644940346	-30.86932389618967	292.99964088366278	-2
-10.220780983007803	-30.271066244240508	292.99964112201286	-2
-9.3189310769569413	-29.842123732805973	292.99964457763349	-2
-9.1912744868616283	-29.241546695370296	292.99964453491526	-2
-11.396608321631332	-24.32127604680225	292.99961742990934	-2
-10.397706304115543	-27.702922197052018	292.99955997673737	-2
-11.123939030888369	-27.51510564357384	292.99954325918418	-2
-11.846783298072369	-27.314643186750772	292.9995354893174	-2
-12.535287371084463	-25.756852272260694	292.99956406817722	-2
-9.9445436591427185	-29.074550940342114	292.99961976660921	-2
-10.546244965602895	-28.298678228438447	292.99955390586592	-2
-7.4363595166087348	-17.926204928662894	292.99976930640025	-2
-11.303483206067304	-21.032288183704726	292.99966014022579	-2
-10.408723219764338	-19.849643719812867	292.99969428799011	-2
-12.233143250138271	-23.253168692395086	292.99961190174042	-2
-12.747466233563904	-21.997734155722249	292.99961599970544	-2
-9.0552654079154404	-18.415775255170189	292.99973239572751	-2
14.609569492581247	-30.963631512535123	293.00050124700306	-2
14.2301001551116	-29.79574497974199	293.00070054158374	-2
14.419834823846424	-30.379688246138549	293.00050162632039	-2
14.040365486376777	-29.211801713345444	293.00070166024108	-2
13.85063081764196	-28.627858446948892	293.00061107093035	-2
13.660896148907138	-28.043915180552318	293.00061267240864	-2
16.414360189645777	-22.524168680106627	293.00052711006646	-2
16.020917329756905	-21.154694589702849	293.00048824899284	-2
17.189793664918422	-23.719559617712974	293.00056172017059	-2
14.909887365681055	-26.964578863820471	293.00059438478286	-2
16.10044154237854	-25.849991195738738	293.00060633078408	-2
15.62254699748115	-26.698126345803132	293.00060578568662	-2
16.793467610017597	-25.562930399444554	293.00060398548436	-2
17.48137822474067	-25.263818351295974	293.00059654672964	-2
14.392583024201297	-27.799096176737798	293.00062096442389	-2
14.144091197386816	-18.985744470601894	293.00040586027376	-2
12.103467379407897	-17.135380510062006	293.00034472388376	-2
10.512948081286396	-16.120898537813314	293.00027788590205	-2
13.684583411026928	-17.472387169883341	293.00037994826596	-2
15.86187956221681	-19.30698921407015	293.00043715028403	-2
8.8959932582483177	-16.238316901285309	293.00022417980705	-2
4.0660652600879503	-14.948648820762967	293.00006462029432	-2
3.0908061017416353	-14.011140076903846	293.00003141960849	-2
1.6147649307907672	-14.437446634134666	292.99998437550153	-2
6.6009474272199764	-15.33944023638665	293.00013521426746	-2
5.3320976999150282	-14.471978146128825	293.00009288563899	-2
-3.0244992870235805	-17.536070574825658	292.99988212017172	-2
-2.2870167066395952	-16.462403524036574	292.99989361615633	-2
-6.3120608125680935	-17.221200769845368	292.99979404917906	-2
-4.9684079534517362	-16.847258308333352	292.99982840758588	-2
-3.6575623870457505	-16.446857195127755	292.99985747963615	-2
-1.591330118326028	-14.884707072484591	292.9999105822103	-2
0.078492561362847324	-14.454825529736183	292.99994565929552	-2