[Format]      =  1
[Precision]   =  1e-008
[MinAngle]    =  20
[Depth]       =  100
[LengthUnits] =  millimeters
[ProblemType] =  planar
[Coordinates] =  cartesian
[PrevSoln] = ""
[dT] = 0
[Comment]     =  "Add comments here."
[PointProps]   = 0
[BdryProps]   = 0
[BlockProps]  = 11
  <BeginBlock>
    <BlockName> = "Constantan"
    <Kx> = 22
    <Ky> = 22
    <Kt> = 3
    <qv> = 0
    <TKPoints> = 2
      273	22
      473	26
  <EndBlock>
  <BeginBlock>
    <BlockName> = "Plywood"
    <Kx> = 0.12
    <Ky> = 0.12
    <Kt> = 3
    <qv> = 0
  <EndBlock>
  <BeginBlock>
    <BlockName> = "Acryl"
    <Kx> = 19
    <Ky> = 19
    <Kt> = 1.75
    <qv> = 0
  <EndBlock>
  <BeginBlock>
    <BlockName> = "Air"
    <Kx> = 0.018100000000000002
    <Ky> = 0.018100000000000002
    <Kt> = 3
    <qv> = 0
    <TKPoints> = 18
      200	0.018100000000000002
      250	0.0223
      300	0.026100000000000002
      350	0.029700000000000001
      400	0.033099999999999997
      450	0.036299999999999999
      500	0.0395
      550	0.042599999999999999
      600	0.045600000000000002
      700	0.051299999999999998
      800	0.056899999999999999
      900	0.0625
      1000	0.067199999999999996
      1200	0.075899999999999995
      1400	0.083500000000000005
      1600	0.090399999999999994
      1800	0.097000000000000003
      2000	0.1032
  <EndBlock>
  <BeginBlock>
    <BlockName> = "e1"
    <Kx> = 2.6498996896116669
    <Ky> = 2.6498996896116669
    <Kt> = 0
    <qv> = 0
  <EndBlock>
  <BeginBlock>
    <BlockName> = "e2"
    <Kx> = 0.12953316809300527
    <Ky> = 0.12953316809300527
    <Kt> = 0
    <qv> = 0
  <EndBlock>
  <BeginBlock>
    <BlockName> = "e3"
    <Kx> = 14.398967120915913
    <Ky> = 14.398967120915913
    <Kt> = 0
    <qv> = 0
  <EndBlock>
  <BeginBlock>
    <BlockName> = "e4"
    <Kx> = 0.042882574356338271
    <Ky> = 0.042882574356338271
    <Kt> = 0
    <qv> = 0
  <EndBlock>
  <BeginBlock>
    <BlockName> = "e5"
    <Kx> = 37.197476986533054
    <Ky> = 37.197476986533054
    <Kt> = 0
    <qv> = 0
  <EndBlock>
  <BeginBlock>
    <BlockName> = "e6"
    <Kx> = 0.015664246064106369
    <Ky> = 0.015664246064106369
    <Kt> = 0
    <qv> = 0
  <EndBlock>
  <BeginBlock>
    <BlockName> = "e7"
    <Kx> = 142.03015659052124
    <Ky> = 142.03015659052124
    <Kt> = 0
    <qv> = 0
  <EndBlock>
[ConductorProps]  = 2
  <BeginConductor>
    <ConductorName> = "Draht"
    <Tc> = 293
    <qc> = 0
    <ConductorType> = 1
  <EndConductor>
  <BeginConductor>
    <ConductorName> = "New Conductor"
    <Tc> = 0
    <qc> = 10
    <ConductorType> = 0
  <EndConductor>
[NumPoints] = 31
0	22.949999999999999	0	0	0
0	28	0	0	0
25	23	0	0	0
-25	23	0	0	0
-25	28	0	0	0
25	28	0	0	0
0	22.550000000000001	0	0	0
3	22.200000000000003	0	0	0
3	22.600000000000001	0	0	0
-3	22.200000000000003	0	0	0
-3	22.600000000000001	0	0	0
0	56.979599999999998	0	0	0
0	-28.979599999999998	0	0	0
0	-29.593594285714282	0	0	0
0	57.593594285714282	0	0	0
0	-30.207588571428566	0	0	0
0	58.207588571428566	0	0	0
0	-30.821582857142857	0	0	0
0	58.821582857142857	0	0	0
0	-31.435577142857142	0	0	0
0	59.435577142857142	0	0	0
0	-32.049571428571426	0	0	0
0	60.049571428571426	0	0	0
0	-32.66356571428571	0	0	0
0	60.66356571428571	0	0	0
0	-33.277560000000001	0	0	0
0	61.277560000000001	0	0	0
-3.0071283708559031	22.599872925452502	0	0	0
3.0071283708559031	22.599872925452502	0	0	0
0.29999999999999999	23	0	0	0
-0.29999999999999999	23	0	0	0
[NumSegments] = 7
3	4	-1	0	0	0	0
4	1	-1	0	0	0	0
5	1	-1	0	0	0	0
2	29	-1	0	0	0	0
5	2	-1	0	0	0	0
30	3	-1	0	0	0	0
30	29	-1	0	0	0	0
[NumArcSegments] = 24
6	0	180	1	0	0	0	1
0	6	180	1	0	0	0	1
9	10	180	1	0	0	0	1
11	12	180	1	0	0	0	0
12	11	180	1	0	0	0	0
13	14	180	1	0	0	0	0
14	13	180	1	0	0	0	0
15	16	180	1	0	0	0	0
16	15	180	1	0	0	0	0
17	18	180	1	0	0	0	0
18	17	180	1	0	0	0	0
19	20	180	1	0	0	0	0
20	19	180	1	0	0	0	0
21	22	180	1	0	0	0	0
22	21	180	1	0	0	0	0
23	24	180	1	0	0	0	0
24	23	180	1	0	0	0	0
25	26	180	1	0	0	0	0
26	25	180	1	0	0	0	0
8	7	180	1	0	0	0	0
10	27	2.0425604383023472	1	0	0	0	0
28	8	2.0425604383023481	1	0	0	0	0
27	9	180	1	0	0	0	0
7	28	177.95743956169767	1	0	0	0	0
[NumHoles] = 0
[NumBlockLabels] = 12
-2.8999999999999999	22.32	1	-1	0	0
0.080000000000000002	22.780000000000001	1	-1	0	0
3.0299999999999998	22.370000000000001	1	-1	0	0
-3.73	22.649999999999999	4	-1	0	0
-13	25.600000000000001	3	-1	0	0
42.865334955051516	20.024329954380537	5	-1	0	0
42.199956969323793	26.100642940173845	6	-1	0	0
40.666097578127925	32.105713161338542	7	-1	0	0
38.271206351242959	37.914503909489326	8	-1	0	0
35.040844845528483	43.402759986023241	9	-1	0	0
31.018598836915988	48.449644060745143	10	-1	0	0
26.265605421740933	52.94036141262972	11	-1	0	0
