[Format]      =  1
[Precision]   =  1e-008
[MinAngle]    =  20
[Depth]       =  100
[LengthUnits] =  millimeters
[ProblemType] =  planar
[Coordinates] =  cartesian
[PrevSoln] = "\\vwifbof00v11.vwinf.vw.vwg\FMEC4TQ\Eigene Dateien\Konzepte\Axoquarium\Simulationen\Plexiglas_T0.anh"
[dT] = 500
[Comment]     =  "Add comments here."
[PointProps]   = 0
[BdryProps]   = 0
[BlockProps]  = 11
  <BeginBlock>
    <BlockName> = "Constantan"
    <Kx> = 22
    <Ky> = 22
    <Kt> = 3
    <qv> = 0
    <TKPoints> = 2
      273	22
      473	26
  <EndBlock>
  <BeginBlock>
    <BlockName> = "Plywood"
    <Kx> = 0.12
    <Ky> = 0.12
    <Kt> = 3
    <qv> = 0
  <EndBlock>
  <BeginBlock>
    <BlockName> = "Acryl"
    <Kx> = 19
    <Ky> = 19
    <Kt> = 1.75
    <qv> = 0
  <EndBlock>
  <BeginBlock>
    <BlockName> = "Air"
    <Kx> = 0.018100000000000002
    <Ky> = 0.018100000000000002
    <Kt> = 3
    <qv> = 0
    <TKPoints> = 18
      200	0.018100000000000002
      250	0.0223
      300	0.026100000000000002
      350	0.029700000000000001
      400	0.033099999999999997
      450	0.036299999999999999
      500	0.0395
      550	0.042599999999999999
      600	0.045600000000000002
      700	0.051299999999999998
      800	0.056899999999999999
      900	0.0625
      1000	0.067199999999999996
      1200	0.075899999999999995
      1400	0.083500000000000005
      1600	0.090399999999999994
      1800	0.097000000000000003
      2000	0.1032
  <EndBlock>
  <BeginBlock>
    <BlockName> = "e1"
    <Kx> = 2.6498996896116669
    <Ky> = 2.6498996896116669
    <Kt> = 0
    <qv> = 0
  <EndBlock>
  <BeginBlock>
    <BlockName> = "e2"
    <Kx> = 0.12953316809300527
    <Ky> = 0.12953316809300527
    <Kt> = 0
    <qv> = 0
  <EndBlock>
  <BeginBlock>
    <BlockName> = "e3"
    <Kx> = 14.398967120915913
    <Ky> = 14.398967120915913
    <Kt> = 0
    <qv> = 0
  <EndBlock>
  <BeginBlock>
    <BlockName> = "e4"
    <Kx> = 0.042882574356338271
    <Ky> = 0.042882574356338271
    <Kt> = 0
    <qv> = 0
  <EndBlock>
  <BeginBlock>
    <BlockName> = "e5"
    <Kx> = 37.197476986533054
    <Ky> = 37.197476986533054
    <Kt> = 0
    <qv> = 0
  <EndBlock>
  <BeginBlock>
    <BlockName> = "e6"
    <Kx> = 0.015664246064106369
    <Ky> = 0.015664246064106369
    <Kt> = 0
    <qv> = 0
  <EndBlock>
  <BeginBlock>
    <BlockName> = "e7"
    <Kx> = 142.03015659052124
    <Ky> = 142.03015659052124
    <Kt> = 0
    <qv> = 0
  <EndBlock>
[ConductorProps]  = 2
  <BeginConductor>
    <ConductorName> = "Draht"
    <Tc> = 293
    <qc> = 20
    <ConductorType> = 0
  <EndConductor>
  <BeginConductor>
    <ConductorName> = "New Conductor"
    <Tc> = 0
    <qc> = 10
    <ConductorType> = 0
  <EndConductor>
[NumPoints] = 31
0	22.949999999999999	0	0	0
0	28	0	0	0
25	23	0	0	0
-25	23	0	0	0
-25	28	0	0	0
25	28	0	0	0
0	22.550000000000001	0	0	0
3	22.200000000000003	0	0	0
3	22.600000000000001	0	0	0
-3	22.200000000000003	0	0	0
-3	22.600000000000001	0	0	0
0	56.979599999999998	0	0	0
0	-28.979599999999998	0	0	0
0	-29.593594285714282	0	0	0
0	57.593594285714282	0	0	0
0	-30.207588571428566	0	0	0
0	58.207588571428566	0	0	0
0	-30.821582857142857	0	0	0
0	58.821582857142857	0	0	0
0	-31.435577142857142	0	0	0
0	59.435577142857142	0	0	0
0	-32.049571428571426	0	0	0
0	60.049571428571426	0	0	0
0	-32.66356571428571	0	0	0
0	60.66356571428571	0	0	0
0	-33.277560000000001	0	0	0
0	61.277560000000001	0	0	0
-3.0071283708559031	22.599872925452502	0	0	0
3.0071283708559031	22.599872925452502	0	0	0
0.29999999999999999	23	0	0	0
-0.29999999999999999	23	0	0	0
[NumSegments] = 7
3	4	-1	0	0	0	0
4	1	-1	0	0	0	0
5	1	-1	0	0	0	0
2	29	-1	0	0	0	0
5	2	-1	0	0	0	0
30	3	-1	0	0	0	0
30	29	-1	0	0	0	0
[NumArcSegments] = 24
6	0	180	1	0	0	0	1
0	6	180	1	0	0	0	1
9	10	180	1	0	0	0	1
11	12	180	1	0	0	0	0
12	11	180	1	0	0	0	0
13	14	180	1	0	0	0	0
14	13	180	1	0	0	0	0
15	16	180	1	0	0	0	0
16	15	180	1	0	0	0	0
17	18	180	1	0	0	0	0
18	17	180	1	0	0	0	0
19	20	180	1	0	0	0	0
20	19	180	1	0	0	0	0
21	22	180	1	0	0	0	0
22	21	180	1	0	0	0	0
23	24	180	1	0	0	0	0
24	23	180	1	0	0	0	0
25	26	180	1	0	0	0	0
26	25	180	1	0	0	0	0
8	7	180	1	0	0	0	1
10	27	2.0425604383023472	1	0	0	0	0
28	8	2.0425604383023481	1	0	0	0	0
27	9	180	1	0	0	0	1
7	28	177.95743956169767	1	0	0	0	1
[NumHoles] = 0
[NumBlockLabels] = 12
-2.8999999999999999	22.32	1	-1	0	0
0.080000000000000002	22.780000000000001	1	-1	0	0
3.0299999999999998	22.370000000000001	1	-1	0	0
-3.73	22.649999999999999	4	-1	0	0
-13	25.600000000000001	3	-1	0	0
42.865334955051516	20.024329954380537	5	-1	0	0
42.199956969323793	26.100642940173845	6	-1	0	0
40.666097578127925	32.105713161338542	7	-1	0	0
38.271206351242959	37.914503909489326	8	-1	0	0
35.040844845528483	43.402759986023241	9	-1	0	0
31.018598836915988	48.449644060745143	10	-1	0	0
26.265605421740933	52.94036141262972	11	-1	0	0
[Solution]
8750
1.6499630493222919	-33.248759787844925	293.00838702076567	-2
0.82510719248305753	-33.270359398617998	293.00838574667608	-2
2.4743163114331517	-33.212767747131458	293.00838857729661	-2
1.6285349577726516	-32.635139530859924	293.00838693954142	-2
0	-33.277560000000001	293.00838475978918	-2
0.81439151465860204	-32.656458627207371	293.00838566779606	-2
3.2979158728263087	-33.162394240001866	293.00839042074961	-2
2.4421823333625912	-32.599614919246626	293.0083884978061	-2
3.2550857965558371	-32.549895613508326	293.0083903438429	-2
2.4100483552920307	-31.986462091361808	293.00695530983984	-2
1.6071068662230115	-32.021519273874922	293.00695126567717	-2
-0.82510719248308884	-33.270359398618233	293.00838405587274	-2
-0.8143915146585774	-32.656458627207563	293.00838397809457	-2
0	-32.66356571428571	293.0083846820869	-2
0.80367583683414678	-32.042557855796751	293.00694774595996	-2
4.1205108570969742	-33.0976546107144	293.00839254554603	-2
4.0669977290827273	-32.485996758627188	293.00839247211587	-2
3.2122557202853654	-31.937396987014804	293.00695991059359	-2
4.0134846010684813	-31.874338906539997	293.00696503279534	-2
3.1694256440148938	-31.324898360521274	293.0069591577921	-2
2.3779143772214701	-31.373309263476983	293.00695457244109	-2
1.5856787746733711	-31.407899016889928	293.00695050511206	-2
-1.6499630493223272	-33.248759787845152	293.00838363334043	-2
-1.6285349577726302	-32.635139530860116	293.00838355440948	-2
-0.80367583683418564	-32.042557855796979	293.00694230487403	-2
0	-32.049571428571426	293.00694477767411	-2
0.79296015900969152	-31.428657084386121	293.00694698385894	-2
4.9418506938442839	-33.018568579587281	293.00839494487667	-2
4.8776708147034471	-32.407937818813409	293.00839487481261	-2
3.9599714730542352	-31.262681054452788	293.00696428639742	-2
4.813490935562613	-31.79730705803955	293.00697067617972	-2
3.1265955677444226	-30.712399734027741	293.00610699571132	-2
2.3457803991509101	-30.760156435592158	293.00610036051773	-2
1.5642506831237311	-30.794278759904927	293.00609424344123	-2
-2.4743163114331912	-33.212767747131686	293.0083834939237	-2
-2.442182333362573	-32.599614919246825	293.008383413366	-2
-1.6071068662230541	-32.02151927387515	293.00694042173672	-2
-0.79296015900971362	-31.428657084386398	293.00694155099058	-2
-1.585678774673398	-31.407899016890202	293.0069396480647	-2
0	-31.435577142857142	293.00694400357111	-2
0.78224448118523626	-30.814756312975504	293.006088700764	-2
5.7616851949974661	-32.925160236991715	293.00839761087042	-2
5.6868581145429511	-32.31574257157623	293.00839754303769	-2
3.9064583450399892	-30.651023202365593	293.00611413747697	-2
4.749311056421778	-31.186676297265691	293.00696992106879	-2
4.6851311772809447	-30.576045536491833	293.00612175181294	-2
5.5372039536339264	-31.096907240745281	293.00697605334688	-2
5.6120310340884396	-31.706324906160752	293.00697686779989	-2
3.8529452170257419	-30.039365350278395	293.00611141354926	-2
3.0837654914739505	-30.099901107534208	293.00610427531012	-2
2.3136464210803491	-30.147003607707333	293.00609762348336	-2
1.5428225915740907	-30.180658502919925	293.00609147158502	-2
-3.2979158728263522	-33.162394240002087	293.00838364045984	-2
-3.2550857965558224	-32.549895613508525	293.00838355887208	-2
-2.4100483552920773	-31.986462091362036	293.00693908085401	-2
-2.3779143772215017	-31.373309263477257	293.00693829454519	-2
-0.78224448118527179	-30.814756312975724	293.00607950771837	-2
-1.5642506831237704	-30.79427875990514	293.0060758315974	-2
0	-30.821582857142857	293.00608377074315	-2
0.77152880336078089	-30.200855541564877	293.00608590414151	-2
6.5797646310255535	-32.817458036013733	293.0084005368895	-2
6.4943131423109337	-32.209439100481077	293.008400469668	-2
6.4088616535963165	-31.601420164948426	293.00698353174499	-2
4.6209512981401089	-29.965414775717967	293.00611902556238	-2
5.4623768731794158	-30.487489575329811	293.00612986245727	-2
5.3875497927249016	-29.878071909914325	293.00612713734279	-2
6.3234101648816985	-30.993401229415788	293.00698277655113	-2
3.7994320890114954	-29.427707498191189	293.00578847340529	-2
3.0409354152034789	-29.487402481040675	293.00577802842605	-2
2.2815124430097891	-29.533850779822508	293.00576909831562	-2
1.5213945000244506	-29.567038245934924	293.0057591390804	-2
-4.1205108570970213	-33.097654610714613	293.00838407597524	-2
-4.0669977290827166	-32.485996758627387	293.00838399474037	-2
-3.2122557202854156	-31.937396987015017	293.00693832562615	-2
-3.1694256440149298	-31.324898360521541	293.00693752892892	-2
-2.3457803991509527	-30.760156435592371	293.00607280265768	-2
-0.77152880336079543	-30.200855541565133	293.00607669601953	-2
-1.5428225915741098	-30.180658502920181	293.00607303583052	-2
-2.3136464210803727	-30.147003607707589	293.00607002239633	-2
0	-30.207588571428566	293.00608097974327	-2
0.76081312553632563	-29.586954770154257	293.00575232107377	-2
7.3958398070074196	-32.695494783787076	293.00840371925943	-2
7.2997899393839445	-32.08905978659503	293.00840365131262	-2
7.1076902041369978	-30.876189792210951	293.00698999597796	-2
7.203740071760472	-31.48262478940298	293.00699079448316	-2
4.5567714189992738	-29.354784014944102	293.00579736932798	-2
6.2379586761670831	-30.385382293883147	293.00613849828079	-2
6.1525071874524642	-29.777363358350499	293.00613579508274	-2
6.0670556987378461	-29.169344422817844	293.00581444591234	-2
5.3127227122703893	-29.26865424449884	293.00580488070835	-2
7.011640336513528	-30.269754795018919	293.00614764538165	-2
3.7459189609972494	-28.816049646103991	293.00577296174765	-2
4.4925915398584397	-28.74415325417025	293.00578193875771	-2
2.9981053389330077	-28.874903854547142	293.00576129044487	-2
2.2493784649392286	-28.920697951937683	293.00575312411797	-2
1.4999664084748106	-28.95341798894993	293.00574158050409	-2
-4.9418506938443336	-33.018568579587495	293.00838480133768	-2
-4.8776708147034409	-32.407937818813608	293.00838472192044	-2
-4.0134846010685354	-31.874338906540213	293.00693817955965	-2
-3.9599714730542748	-31.262681054453054	293.00693737677153	-2
-3.1265955677444683	-30.712399734027947	293.0060703571346	-2
-3.083765491473978	-30.099901107534457	293.00606757603788	-2
-0.76081312553633917	-29.586954770154435	293.00574317925964	-2
-1.5213945000244673	-29.567038245935102	293.00573639889683	-2
-2.2815124430098086	-29.533850779822686	293.00573372328881	-2
0	-29.593594285714282	293.00574851095575	-2
0.75009744771187037	-28.97305399874363	293.0057347701329	-2
8.2096621385389614	-32.559307631499863	293.00840715756004	-2
8.1030431497267656	-31.954641298623237	293.00840708840502	-2
7.889805172102375	-30.74530863287	293.00699780313556	-2
7.9964241609145716	-31.349974965746604	293.00699859161568	-2
5.2378956318158778	-28.659236579083377	293.0057881666861	-2
6.9155904688900529	-29.66331979782688	293.00614497089759	-2
6.8195406012665796	-29.056884800634826	293.00582625925125	-2
5.9816042100232307	-28.56132548728521	293.00579782191863	-2
7.6765671944779896	-29.535975967116762	293.00615456740974	-2
7.7831861832901854	-30.140642299993381	293.0061572591647	-2
4.0069583430738396	-27.613853476394222	293.0034415335889	-2
2.5350273874509028	-27.447331412776787	293.00301215794292	-2
1.0761162081742794	-27.095220014732458	293.00244101876615	-2
-5.7616851949975185	-32.925160236991928	293.00838581426893	-2
-5.6868581145429484	-32.315742571576429	293.00838573743977	-2
-4.8134909355626707	-31.797307058039763	293.00693866118627	-2
-4.7493110564218233	-31.186676297265947	293.00693785749132	-2
-3.9064583450400381	-30.651023202365799	293.00606847269381	-2
-3.8529452170257734	-30.039365350278636	293.0060656853226	-2
-3.0409354152035015	-29.487402481040853	293.00573031975466	-2
-0.7500974477118878	-28.973053998743858	293.00572714821647	-2
-1.4999664084748319	-28.95341798895015	293.00571832594505	-2
-2.2493784649392534	-28.92069795193791	293.00571730908479	-2
0	-28.979599999999998	293.00573255342675	-2
-0.36321348044870799	-27.620142433337925	293.00307785715387	-2
9.0209837274543219	-32.408938063077962	293.00841085345115	-2
8.9038280946302386	-31.806224581739283	293.00841078356348	-2
8.6695168289820739	-30.600797619061929	293.00700617674465	-2
8.7866724618061571	-31.20351110040059	293.00700696143593	-2
5.4012349247030063	-27.026452393107547	293.00286699796038	-2
6.7234907336431098	-28.450449803442794	293.00581087751169	-2
7.5699482056657939	-28.931309634240122	293.00583685855401	-2
6.8945194454599656	-27.200023612070467	293.00346113703927	-2
8.4352055633339109	-29.395370656384586	293.00616459735062	-2
8.5523611961579959	-29.998084137723261	293.00616726824865	-2
3.8890479186214346	-26.389306898568286	293.00199207649337	-2
2.6346294544113613	-26.179373559134014	293.00171899912465	-2
0.21840035231752486	-26.106842707047072	293.00156336682954	-2
1.7158695915092963	-25.29987483561171	293.00114221671828	-2
-6.5797646310256086	-32.817458036013939	293.00838710994634	-2
-6.4943131423109337	-32.209439100481269	293.0083870353464	-2
-5.6120310340885	-31.706324906160965	293.00693977990409	-2
-5.5372039536339761	-31.09690724074553	293.00693897866427	-2
-4.6851311772809963	-30.576045536492032	293.00606713457665	-2
-4.6209512981401444	-29.965414775718216	293.0060643325707	-2
-3.7994320890115212	-29.427707498191367	293.00572915111348	-2
-2.9981053389330361	-28.87490385454737	293.00571285159083	-2
-2.5228495680319378	-27.248225825262455	293.00259784658562	-2
-1.0578166431258458	-26.396387819727277	293.00173218544796	-2
9.8295574373380692	-32.244431882548561	293.0084148086957	-2
9.7019008472427686	-31.643854845112859	293.00841473910162	-2
9.4465876670521673	-30.442700770241466	293.00701512378458	-2
9.574244257147468	-31.04327780767715	293.00701590442242	-2
5.0710240592620668	-25.697099225645289	293.00162726784509	-2
7.423609746701354	-26.054213883770021	293.00219442024053	-2
7.4633292168536034	-28.326643301363511	293.0058206658361	-2
8.2008942976857497	-28.189943693707235	293.00583352907864	-2
8.3180499305098277	-28.792657175045896	293.0058487992091	-2
8.3281795786898929	-26.934310412221222	293.00346919657568	-2
9.1912744868615697	-29.241546695370083	293.00617502862281	-2
9.0636178967662691	-28.640969657934377	293.00585923173935	-2
9.3189310769568721	-29.842123732805781	293.00617767387251	-2
3.6104661420548751	-24.558372928253082	293.00092706823608	-2
2.379439844823128	-24.204176142267887	293.00074198707426	-2
-0.073049511546209533	-24.8310593521669	293.00085851399029	-2
1.1320898905493559	-23.87996631748285	293.00059081187243	-2
-7.3958398070074782	-32.695494783787282	293.0083886829633	-2
-7.2997899393839472	-32.089059786595215	293.00838860924381	-2
-6.4088616535963805	-31.601420164948642	293.00694153639921	-2
-6.3234101648817527	-30.993401229416037	293.00694073761503	-2
-5.4623768731794708	-30.487489575330002	293.00606636302604	-2
-5.3875497927249416	-29.878071909914567	293.00606354530021	-2
-4.5567714189993023	-29.354784014944279	293.00572642898538	-2
-3.7459189609972814	-28.816049646104211	293.0057130125565	-2
-3.9882916828424317	-27.419992797731009	293.00298923584648	-2
-2.3663705584738794	-25.561559172594606	293.00114914352332	-2
-3.8524839922355278	-26.009576004241808	293.00145628826556	-2
10.635136968805343	-32.065839200087872	293.0084190234677	-2
10.497018306872803	-31.467581548138668	293.00841895506727	-2
10.220780983007726	-30.271066244240281	293.00702464901474	-2
10.358899644940264	-30.869323896189464	293.00702542357442	-2
5.7554475338912381	-24.510598670704951	293.00105832001515	-2
7.2052776608630351	-24.616975384881432	293.00128750457333	-2
9.6564173331217731	-26.221872897549261	293.00294802239864	-2
9.2697838581441125	-24.611428573115571	293.00153486466718	-2
8.9359613066709738	-28.040392620498693	293.00584405763919	-2
9.6683063352775847	-27.878035636443521	293.00585185234831	-2
9.9445436591426546	-29.074550940341901	293.0061858991067	-2
9.806424997210117	-28.476293288392696	293.00586847567604	-2
10.082662321075194	-29.672808592291098	293.00618852668606	-2
2.677697162588855	-22.958413853515516	293.00046231182876	-2
4.1702986644448163	-23.160113465964592	293.0005598233991	-2
-0.37868988844471585	-23.553443852445987	293.00046828160009	-2
-1.6534704945660823	-23.87070054878922	293.00050894598678	-2
0.42728341665356484	-22.516079675029619	293.000305496576	-2
-8.2096621385390236	-32.559307631500062	293.00839052966694	-2
-8.103043149726771	-31.954641298623415	293.00839045513862	-2
-7.2037400717605387	-31.482624789403197	293.00694392771936	-2
-7.1076902041370564	-30.876189792211193	293.00694312871542	-2
-6.2379586761671417	-30.385382293883339	293.00606619789687	-2
-6.1525071874525077	-29.777363358350733	293.00606337565063	-2
-5.3127227122704213	-29.268654244499018	293.00572210335412	-2
-4.4925915398584753	-28.744153254170463	293.00571023902404	-2
-5.237895631815916	-28.65923657908359	293.00570440296315	-2
-5.3870616937279205	-26.918796015637959	293.00249491590034	-2
-3.3311865188761791	-24.345671685201541	293.00062951271076	-2
-5.2879625565707054	-25.557681597389038	293.00126932474132	-2
-5.0695967619643181	-24.210547796203599	293.0005918289138	-2
11.437476934527032	-31.873214416757023	293.00842349581791	-2
11.288938273039665	-31.277458385370554	293.00842342880776	-2
10.991860950064934	-30.08594632259765	293.00703476000507	-2
11.140399611552299	-30.681702353984093	293.00703552782261	-2
6.2995189717247921	-23.370872445099124	293.00074813520683	-2
7.5515187361482301	-23.205082853496908	293.00081446855194	-2
10.397706304115484	-27.702922197051841	293.0058632390282	-2
11.172635413426153	-26.287221786671104	293.00367076678361	-2
11.591405405707592	-25.131928837987179	293.00236132293662	-2
10.267569066254556	-23.301041792639875	293.00110503736374	-2
8.9235377870356238	-22.856975219782424	293.00083888633918	-2
10.546244965602844	-28.298678228438277	293.00587975002753	-2
10.694783627090208	-28.894434259824742	293.0061972846467	-2
10.843322288577575	-29.490190291211206	293.00619991073143	-2
2.8117882263295599	-21.534522494881099	293.00028359584053	-2
4.0612973056282851	-20.838696313051944	293.00027591706328	-2
5.4775562588652029	-22.412036224742135	293.00050309628858	-2
-1.5235168831027601	-22.49753657352943	293.00024834200349	-2
-2.8839528313753298	-22.724871732999635	293.0002526420422	-2
-0.20057450864400606	-21.44879767085974	293.00017386768593	-2
1.7141496690079983	-20.61766012132118	293.00017169008697	-2
-9.0209837274543876	-32.408938063078153	293.00839264968204	-2
-8.9038280946302457	-31.806224581739457	293.0083925731322	-2
-7.9964241609146409	-31.349974965746824	293.00694695362779	-2
-7.8898051721024398	-30.745308632870234	293.00694615143959	-2
-7.0116403365135893	-30.269754795019111	293.0060666518317	-2
-6.9155904688901	-29.663319797827107	293.00606382242955	-2
-6.0670556987378816	-29.169344422818021	293.00572006739446	-2
-6.8195406012666187	-29.056884800635004	293.00571723640746	-2
-5.9816042100232716	-28.561325487285416	293.00570330791749	-2
-6.7234907336431533	-28.450449803443	293.00569849435504	-2
-6.6445603683802519	-25.70632706669085	293.00148184732063	-2
-7.5719566746317319	-26.854622281175892	293.00286861804631	-2
-4.21883924345327	-23.111598023942182	293.00030935757951	-2
-6.6875869173508784	-24.333028106766079	293.00070329984385	-2
-5.5063846266201857	-22.506537138878802	293.00019120762067	-2
-6.8517808784405094	-22.968901404297256	293.00027293651601	-2
12.236332933977137	-31.666616207931028	293.00842822251781	-2
12.07741951925016	-31.073543270165679	293.00842815622008	-2
11.91850610452318	-30.480470332400337	293.00704623551229	-2
11.759592689796204	-29.887397394635009	293.00704546540243	-2
11.600679275069233	-29.294324456869681	293.00621190645762	-2
7.4690852131959549	-21.64236296099725	293.00051532719465	-2
11.123939030888307	-27.515105643573669	293.00587784512004	-2
11.846783298072303	-27.314643186750601	293.00588888189731	-2
12.566018920301341	-27.101595889388911	293.00589590901018	-2
11.890908172410734	-23.579356331235182	293.00147716797278	-2
13.432336900113578	-23.93174925596184	293.00201680117743	-2
13.18134641538145	-25.394891820355458	293.00332352735001	-2
10.017297922234963	-21.958474264136321	293.00073994617111	-2
11.377218736747963	-22.083927810819219	293.00088138831069	-2
8.9426803169916376	-21.115669294631445	293.00053429939499	-2
11.282852445615278	-28.108178581338983	293.00589289267276	-2
11.441765860342255	-28.701251519104332	293.00620919979843	-2
3.4335525626046417	-19.38090632320813	293.00016374719479	-2
5.1254774112563162	-19.955019313783954	293.00025296343358	-2
6.3949919616199562	-20.504288958553051	293.00034762018197	-2
-1.3955325774182463	-21.124187651520867	293.00011263231931	-2
-2.6653169692809846	-21.435816529017227	293.00010227361372	-2
-4.2334171477671152	-21.721897897309709	293.00009620513697	-2
0.056121003155251703	-20.237433206709515	293.00009756377563	-2
1.1146077479701246	-19.118725316532927	293.00008066335567	-2
-9.8295574373381367	-32.244431882548753	293.00839504584729	-2
-9.7019008472427775	-31.643854845113033	293.008394967095	-2
-8.78667246180623	-31.20351110040081	293.00695062002018	-2
-8.6695168289821396	-30.600797619062163	293.00694981376154	-2
-7.7831861832902494	-30.140642299993573	293.00606773942167	-2
-7.6765671944780403	-29.535975967116983	293.00606490632237	-2
-7.5699482056658356	-28.9313096342403	293.0057189093281	-2
-7.4633292168536496	-28.326643301363717	293.00570221227048	-2
-8.0606094225954763	-24.384121328807971	293.00078031214929	-2
-8.8800341994542489	-26.055245776288135	293.00208571165308	-2
-8.2008942976857995	-28.189943693707434	293.0057024530654	-2
-8.9359613066710271	-28.040392620498885	293.00569885891611	-2
-5.7968291954645963	-21.113872878988104	293.00001422783293	-2
-8.6529940178493003	-22.654250015234659	293.00023718144246	-2
-7.4718123799958205	-21.205431523190928	293.00000661165694	-2
13.031461627879535	-31.446107505425655	293.0084332007653	-2
12.862221866478501	-30.85589831704349	293.00843313394012	-2
12.692982105077464	-30.265689128661329	293.00705755478918	-2
12.52374234367643	-29.675479940279196	293.00705678275068	-2
12.354502582275401	-29.085270751897049	293.00622439562073	-2
7.837139934364842	-20.108638907528	293.00038224949168	-2
12.016023059473332	-27.904852375132727	293.00590403338242	-2
13.281426811437495	-26.876028647759213	293.00591410117863	-2
12.74553347630564	-27.688761544951582	293.00591366697392	-2
12.857164440332911	-22.411498917039765	293.00116086753667	-2
14.479796344678519	-23.378147018746105	293.00192142978966	-2
14.560311267182589	-24.943321473471464	293.00332394945258	-2
13.992789051306817	-26.638010171828434	293.00592830735434	-2
10.583219445816074	-20.130399092258752	293.00052218322395	-2
12.353960315537812	-21.178007112038266	293.0007863808238	-2
9.5865673165570104	-18.973023880770413	293.00038637019674	-2
12.185262820874366	-28.495061563514888	293.00622172384743	-2
2.3596321528749087	-18.212184769351708	293.00008928444117	-2
4.8188431998364223	-18.606190267300796	293.00017979714153	-2
3.7015599860839505	-17.708120486668427	293.0001170095141	-2
6.455775791372421	-18.850362240742442	293.00024964474517	-2
-1.7280561146432327	-19.59780644833339	293.00001535487371	-2
-3.5178558298136289	-20.444533294825522	293.00001317492075	-2
-4.779890733103028	-19.70226903574374	292.99994144692198	-2
-0.32833581135284851	-18.580380244018574	293.00001953916831	-2
0.90647531440540474	-17.524664543432735	293.00003047002718	-2
-10.635136968805412	-32.065839200088057	293.00839772261662	-2
-10.497018306872816	-31.467581548138842	293.00839764251265	-2
-9.5742442571475461	-31.043277807677363	293.00695493747645	-2
-9.4465876670522384	-30.4427007702417	293.00695412907749	-2
-8.5523611961580617	-29.998084137723453	293.00606944415244	-2
-8.435205563333966	-29.395370656384806	293.00606659075584	-2
-8.3180499305098721	-28.792657175046067	293.0057191548089	-2
-9.9217183559781859	-24.36443829095796	293.00093189408801	-2
-9.7824492480507086	-26.746833603826783	293.00341240651477	-2
-11.023317100379737	-25.748797344100961	293.00236594657588	-2
-9.063617896766317	-28.640969657934541	293.00571820785268	-2
-9.6683063352776415	-27.878035636443705	293.00570624432856	-2
-9.8064249972101667	-28.47629328839286	293.00572306814377	-2
-6.5165687535744858	-19.598641338172509	292.99990288160444	-2
-9.5669032713151019	-21.070537873888423	292.99999114774226	-2
-10.608871955875333	-22.624358571498512	293.00031126934778	-2
-8.4178477780694969	-19.555141680599089	292.99987267369733	-2
13.822620812331477	-31.211755478327788	293.00843842978509	-2
13.643106256327171	-30.624589822765081	293.00843836124415	-2
13.463591700322862	-30.037424167202374	293.00706949571497	-2
13.284077144318555	-29.450258511639696	293.00706872525387	-2
13.104562588314256	-28.863092856077003	293.00623742690476	-2
8.0968690931332308	-18.635930347678574	293.00030690940883	-2
12.925048032309949	-28.275927200514289	293.00623476489551	-2
13.471161480172311	-27.459971914155751	293.00592936030728	-2
14.358053349677792	-22.199662666611204	293.00128514395965	-2
15.618306860200352	-23.705928243200425	293.00248032513366	-2
14.699888952079919	-26.387612964330067	293.00594606536583	-2
15.402511124277195	-26.124913298679175	293.005961259976	-2
16.045061196673082	-24.736204350114441	293.00387520599162	-2
14.192686037754052	-27.218553174283102	293.00594436466537	-2
12.900708981927385	-19.963189298529642	293.00064336912641	-2
10.931223440699481	-18.248639483692141	293.00040208905961	-2
12.3675149917302	-18.587225003089696	293.00048672230565	-2
14.470623980349082	-20.533250227300208	293.00085544004531	-2
9.6603873289575617	-17.499836584070302	293.00032144355771	-2
1.697539233909104	-16.043015878312879	293.00002866575318	-2
6.4291708998870094	-16.737001068890141	293.00018603726068	-2
5.3026231375522395	-15.884451699338751	293.00013254715537	-2
3.951285763626696	-16.296565263997774	293.00009793494218	-2
7.8081467997893927	-17.207718555836973	293.0002431609347	-2
-1.8707972653048688	-18.042159816170269	292.99996259105575	-2
-3.1794681897379995	-19.020039654097367	292.99995596590338	-2
-5.5688793946232966	-18.320636907089835	292.99987656287715	-2
-4.1854003857587543	-18.025420464044071	292.99990208068908	-2
-0.275543033702983	-16.435085962983631	292.99997810392313	-2
0.57720987767860854	-15.565765251575325	292.99999195492023	-2
-11.437476934527105	-31.873214416757207	293.00840068380086	-2
-11.28893827303968	-31.277458385370736	293.00840060367682	-2
-10.358899644940346	-30.86932389618967	293.00695991628055	-2
-10.220780983007803	-30.271066244240508	293.00695910914339	-2
-9.3189310769569413	-29.842123732805973	293.00607178617855	-2
-9.1912744868616283	-29.241546695370296	293.00606890431624	-2
-11.396608321631332	-24.32127604680225	293.00114424921651	-2
-10.397706304115543	-27.702922197052018	293.00570958902159	-2
-11.123939030888369	-27.51510564357384	293.00570915134995	-2
-11.846783298072369	-27.314643186750772	293.0057126476097	-2
-12.535287371084463	-25.756852272260694	293.00296282730596	-2
-9.9445436591427185	-29.074550940342114	293.00607194189234	-2
-10.546244965602895	-28.298678228438447	293.00572634106652	-2
-7.4363595166087348	-17.926204928662894	292.99982662649438	-2
-11.303483206067304	-21.032288183704726	293.00001551019784	-2
-10.408723219764338	-19.849643719812867	292.99987865936998	-2
-12.233143250138271	-23.253168692395086	293.00070742617646	-2
-12.747466233563904	-21.997734155722249	293.00029342233233	-2
-9.0552654079154404	-18.415775255170189	292.99981425096433	-2
14.609569492581247	-30.963631512535123	293.00844391144761	-2
14.2301001551116	-29.79574497974199	293.0070820656498	-2
14.419834823846424	-30.379688246138549	293.0084438406364	-2
14.040365486376777	-29.211801713345444	293.0070812982824	-2
13.85063081764196	-28.627858446948892	293.00625099103615	-2
13.660896148907138	-28.043915180552318	293.00624833818426	-2
16.414360189645777	-22.524168680106627	293.00189601217801	-2
16.020917329756905	-21.154694589702849	293.001201412743	-2
17.189793664918422	-23.719559617712974	293.00320521728872	-2
14.909887365681055	-26.964578863820471	293.00596120222883	-2
16.10044154237854	-25.849991195738738	293.00597974213935	-2
15.62254699748115	-26.698126345803132	293.00597726780387	-2
16.793467610017597	-25.562930399444554	293.0059958811056	-2
17.48137822474067	-25.263818351295974	293.00600947081324	-2
14.392583024201297	-27.799096176737798	293.00626239265017	-2
14.144091197386816	-18.985744470601894	293.00060710650894	-2
12.103467379407897	-17.135380510062006	293.0003971207617	-2
10.512948081286396	-16.120898537813314	293.00030678194389	-2
13.684583411026928	-17.472387169883341	293.00047002221334	-2
15.86187956221681	-19.30698921407015	293.00076234131683	-2
8.8959932582483177	-16.238316901285309	293.00025635552316	-2
4.0660652600879503	-14.948648820762967	293.00008612245693	-2
3.0908061017416353	-14.011140076903846	293.00005346959756	-2
1.6147649307907672	-14.437446634134666	293.00001419710787	-2
6.6009474272199764	-15.33944023638665	293.00016436461482	-2
5.3320976999150282	-14.471978146128825	293.00011860420358	-2
-3.0244992870235805	-17.536070574825658	292.99992205660647	-2
-2.2870167066395952	-16.462403524036574	292.99992478053008	-2
-6.3120608125680935	-17.221200769845368	292.99983670720559	-2
-4.9684079534517362	-16.847258308333352	292.99986189505296	-2
-3.6575623870457505	-16.446857195127755	292.99988941302979	-2